
---------- Begin Simulation Statistics ----------
final_tick                                 4581415500                       # Number of ticks from beginning of simulation (restored from checkpoints and never reset)
host_inst_rate                                 733085                       # Simulator instruction rate (inst/s)
host_mem_usage                                 713740                       # Number of bytes of host memory used
host_op_rate                                  1281636                       # Simulator op (including micro ops) rate (op/s)
host_seconds                                     2.99                       # Real time elapsed on the host
host_tick_rate                             1531996750                       # Simulator tick rate (ticks/s)
sim_freq                                 1000000000000                       # Frequency of simulated ticks
sim_insts                                     2192201                       # Number of instructions simulated
sim_ops                                       3832693                       # Number of ops (including micro ops) simulated
sim_seconds                                  0.004581                       # Number of seconds simulated
sim_ticks                                  4581415500                       # Number of ticks simulated
system.cpu.Branches                            361113                       # Number of branches fetched
system.cpu.committedInsts                     2192201                       # Number of instructions committed
system.cpu.committedOps                       3832693                       # Number of ops (including micro ops) committed
system.cpu.idle_fraction                     0.000000                       # Percentage of idle cycles
system.cpu.not_idle_fraction                 1.000000                       # Percentage of non-idle cycles
system.cpu.numCycles                          9162831                       # number of cpu cycles simulated
system.cpu.numWorkItemsCompleted                    0                       # number of work items this cpu completed
system.cpu.numWorkItemsStarted                      0                       # number of work items this cpu started
system.cpu.num_busy_cycles               9162830.998000                       # Number of busy cycles
system.cpu.num_cc_register_reads              2261882                       # number of times the CC registers were read
system.cpu.num_cc_register_writes             1812913                       # number of times the CC registers were written
system.cpu.num_conditional_control_insts       316005                       # number of instructions that are conditional controls
system.cpu.num_fp_alu_accesses                  86161                       # Number of float alu accesses
system.cpu.num_fp_insts                         86161                       # number of float instructions
system.cpu.num_fp_register_reads               120126                       # number of times the floating registers were read
system.cpu.num_fp_register_writes               63955                       # number of times the floating registers were written
system.cpu.num_func_calls                       23109                       # number of times a function call or return occured
system.cpu.num_idle_cycles                   0.002000                       # Number of idle cycles
system.cpu.num_int_alu_accesses               3762954                       # Number of integer alu accesses
system.cpu.num_int_insts                      3762954                       # number of integer instructions
system.cpu.num_int_register_reads             7557115                       # number of times the integer registers were read
system.cpu.num_int_register_writes            3265163                       # number of times the integer registers were written
system.cpu.num_load_insts                      516260                       # Number of load instructions
system.cpu.num_mem_refs                        713590                       # number of memory refs
system.cpu.num_store_insts                     197330                       # Number of store instructions
system.cpu.num_vec_alu_accesses                     0                       # Number of vector alu accesses
system.cpu.num_vec_insts                            0                       # number of vector instructions
system.cpu.num_vec_register_reads                   0                       # number of times the vector registers were read
system.cpu.num_vec_register_writes                  0                       # number of times the vector registers were written
system.cpu.op_class::No_OpClass                 25360      0.66%      0.66% # Class of executed instruction
system.cpu.op_class::IntAlu                   3005091     78.40%     79.06% # Class of executed instruction
system.cpu.op_class::IntMult                       34      0.00%     79.06% # Class of executed instruction
system.cpu.op_class::IntDiv                     36414      0.95%     80.01% # Class of executed instruction
system.cpu.op_class::FloatAdd                    5605      0.15%     80.16% # Class of executed instruction
system.cpu.op_class::FloatCmp                       0      0.00%     80.16% # Class of executed instruction
system.cpu.op_class::FloatCvt                    1376      0.04%     80.20% # Class of executed instruction
system.cpu.op_class::FloatMult                      0      0.00%     80.20% # Class of executed instruction
system.cpu.op_class::FloatMultAcc                   0      0.00%     80.20% # Class of executed instruction
system.cpu.op_class::FloatDiv                       0      0.00%     80.20% # Class of executed instruction
system.cpu.op_class::FloatMisc                      0      0.00%     80.20% # Class of executed instruction
system.cpu.op_class::FloatSqrt                      0      0.00%     80.20% # Class of executed instruction
system.cpu.op_class::SimdAdd                     6764      0.18%     80.37% # Class of executed instruction
system.cpu.op_class::SimdAddAcc                     0      0.00%     80.37% # Class of executed instruction
system.cpu.op_class::SimdAlu                    12194      0.32%     80.69% # Class of executed instruction
system.cpu.op_class::SimdCmp                        0      0.00%     80.69% # Class of executed instruction
system.cpu.op_class::SimdCvt                    13904      0.36%     81.05% # Class of executed instruction
system.cpu.op_class::SimdMisc                   12185      0.32%     81.37% # Class of executed instruction
system.cpu.op_class::SimdMult                       0      0.00%     81.37% # Class of executed instruction
system.cpu.op_class::SimdMultAcc                    0      0.00%     81.37% # Class of executed instruction
system.cpu.op_class::SimdShift                    483      0.01%     81.38% # Class of executed instruction
system.cpu.op_class::SimdShiftAcc                   0      0.00%     81.38% # Class of executed instruction
system.cpu.op_class::SimdDiv                        0      0.00%     81.38% # Class of executed instruction
system.cpu.op_class::SimdSqrt                       0      0.00%     81.38% # Class of executed instruction
system.cpu.op_class::SimdFloatAdd                   0      0.00%     81.38% # Class of executed instruction
system.cpu.op_class::SimdFloatAlu                   0      0.00%     81.38% # Class of executed instruction
system.cpu.op_class::SimdFloatCmp                   0      0.00%     81.38% # Class of executed instruction
system.cpu.op_class::SimdFloatCvt                   0      0.00%     81.38% # Class of executed instruction
system.cpu.op_class::SimdFloatDiv                   0      0.00%     81.38% # Class of executed instruction
system.cpu.op_class::SimdFloatMisc                  0      0.00%     81.38% # Class of executed instruction
system.cpu.op_class::SimdFloatMult                  0      0.00%     81.38% # Class of executed instruction
system.cpu.op_class::SimdFloatMultAcc               0      0.00%     81.38% # Class of executed instruction
system.cpu.op_class::SimdFloatSqrt                  0      0.00%     81.38% # Class of executed instruction
system.cpu.op_class::SimdReduceAdd                  0      0.00%     81.38% # Class of executed instruction
system.cpu.op_class::SimdReduceAlu                  0      0.00%     81.38% # Class of executed instruction
system.cpu.op_class::SimdReduceCmp                  0      0.00%     81.38% # Class of executed instruction
system.cpu.op_class::SimdFloatReduceAdd             0      0.00%     81.38% # Class of executed instruction
system.cpu.op_class::SimdFloatReduceCmp             0      0.00%     81.38% # Class of executed instruction
system.cpu.op_class::SimdAes                        0      0.00%     81.38% # Class of executed instruction
system.cpu.op_class::SimdAesMix                     0      0.00%     81.38% # Class of executed instruction
system.cpu.op_class::SimdSha1Hash                   0      0.00%     81.38% # Class of executed instruction
system.cpu.op_class::SimdSha1Hash2                  0      0.00%     81.38% # Class of executed instruction
system.cpu.op_class::SimdSha256Hash                 0      0.00%     81.38% # Class of executed instruction
system.cpu.op_class::SimdSha256Hash2                0      0.00%     81.38% # Class of executed instruction
system.cpu.op_class::SimdShaSigma2                  0      0.00%     81.38% # Class of executed instruction
system.cpu.op_class::SimdShaSigma3                  0      0.00%     81.38% # Class of executed instruction
system.cpu.op_class::SimdPredAlu                    0      0.00%     81.38% # Class of executed instruction
system.cpu.op_class::MemRead                   498939     13.02%     94.40% # Class of executed instruction
system.cpu.op_class::MemWrite                  183645      4.79%     99.19% # Class of executed instruction
system.cpu.op_class::FloatMemRead               17321      0.45%     99.64% # Class of executed instruction
system.cpu.op_class::FloatMemWrite              13685      0.36%    100.00% # Class of executed instruction
system.cpu.op_class::IprAccess                      0      0.00%    100.00% # Class of executed instruction
system.cpu.op_class::InstPrefetch                   0      0.00%    100.00% # Class of executed instruction
system.cpu.op_class::total                    3833000                       # Class of executed instruction
system.cpu.workload.numSyscalls                    72                       # Number of system calls
system.membus.snoop_filter.hit_multi_requests            0                       # Number of requests hitting in the snoop filter with multiple (>1) holders of the requested data.
system.membus.snoop_filter.hit_multi_snoops            0                       # Number of snoops hitting in the snoop filter with multiple (>1) holders of the requested data.
system.membus.snoop_filter.hit_single_requests          491                       # Number of requests hitting in the snoop filter with a single holder of the requested data.
system.membus.snoop_filter.hit_single_snoops            0                       # Number of snoops hitting in the snoop filter with a single holder of the requested data.
system.membus.snoop_filter.tot_requests         12075                       # Total number of requests made to the snoop filter.
system.membus.snoop_filter.tot_snoops               0                       # Total number of snoops made to the snoop filter.
system.tol2bus.snoop_filter.hit_multi_requests            0                       # Number of requests hitting in the snoop filter with multiple (>1) holders of the requested data.
system.tol2bus.snoop_filter.hit_multi_snoops            0                       # Number of snoops hitting in the snoop filter with multiple (>1) holders of the requested data.
system.tol2bus.snoop_filter.hit_single_requests         7407                       # Number of requests hitting in the snoop filter with a single holder of the requested data.
system.tol2bus.snoop_filter.hit_single_snoops          751                       # Number of snoops hitting in the snoop filter with a single holder of the requested data.
system.tol2bus.snoop_filter.tot_requests        20574                       # Total number of requests made to the snoop filter.
system.tol2bus.snoop_filter.tot_snoops            751                       # Total number of snoops made to the snoop filter.
system.clk_domain.clock                          1000                       # Clock period in ticks
system.cpu.dcache.demand_hits::.cpu.data       701979                       # number of demand (read+write) hits
system.cpu.dcache.demand_hits::total           701979                       # number of demand (read+write) hits
system.cpu.dcache.overall_hits::.cpu.data       701979                       # number of overall hits
system.cpu.dcache.overall_hits::total          701979                       # number of overall hits
system.cpu.dcache.demand_misses::.cpu.data        11411                       # number of demand (read+write) misses
system.cpu.dcache.demand_misses::total          11411                       # number of demand (read+write) misses
system.cpu.dcache.overall_misses::.cpu.data        11411                       # number of overall misses
system.cpu.dcache.overall_misses::total         11411                       # number of overall misses
system.cpu.dcache.demand_miss_latency::.cpu.data    836110500                       # number of demand (read+write) miss cycles
system.cpu.dcache.demand_miss_latency::total    836110500                       # number of demand (read+write) miss cycles
system.cpu.dcache.overall_miss_latency::.cpu.data    836110500                       # number of overall miss cycles
system.cpu.dcache.overall_miss_latency::total    836110500                       # number of overall miss cycles
system.cpu.dcache.demand_accesses::.cpu.data       713390                       # number of demand (read+write) accesses
system.cpu.dcache.demand_accesses::total       713390                       # number of demand (read+write) accesses
system.cpu.dcache.overall_accesses::.cpu.data       713390                       # number of overall (read+write) accesses
system.cpu.dcache.overall_accesses::total       713390                       # number of overall (read+write) accesses
system.cpu.dcache.demand_miss_rate::.cpu.data     0.015995                       # miss rate for demand accesses
system.cpu.dcache.demand_miss_rate::total     0.015995                       # miss rate for demand accesses
system.cpu.dcache.overall_miss_rate::.cpu.data     0.015995                       # miss rate for overall accesses
system.cpu.dcache.overall_miss_rate::total     0.015995                       # miss rate for overall accesses
system.cpu.dcache.demand_avg_miss_latency::.cpu.data 73272.324950                       # average overall miss latency
system.cpu.dcache.demand_avg_miss_latency::total 73272.324950                       # average overall miss latency
system.cpu.dcache.overall_avg_miss_latency::.cpu.data 73272.324950                       # average overall miss latency
system.cpu.dcache.overall_avg_miss_latency::total 73272.324950                       # average overall miss latency
system.cpu.dcache.blocked_cycles::no_mshrs            0                       # number of cycles access was blocked
system.cpu.dcache.blocked_cycles::no_targets            0                       # number of cycles access was blocked
system.cpu.dcache.blocked::no_mshrs                 0                       # number of cycles access was blocked
system.cpu.dcache.blocked::no_targets               0                       # number of cycles access was blocked
system.cpu.dcache.avg_blocked_cycles::no_mshrs          nan                       # average number of cycles each access was blocked
system.cpu.dcache.avg_blocked_cycles::no_targets          nan                       # average number of cycles each access was blocked
system.cpu.dcache.writebacks::.writebacks         1492                       # number of writebacks
system.cpu.dcache.writebacks::total              1492                       # number of writebacks
system.cpu.dcache.demand_mshr_misses::.cpu.data        11411                       # number of demand (read+write) MSHR misses
system.cpu.dcache.demand_mshr_misses::total        11411                       # number of demand (read+write) MSHR misses
system.cpu.dcache.overall_mshr_misses::.cpu.data        11411                       # number of overall MSHR misses
system.cpu.dcache.overall_mshr_misses::total        11411                       # number of overall MSHR misses
system.cpu.dcache.demand_mshr_miss_latency::.cpu.data    824699500                       # number of demand (read+write) MSHR miss cycles
system.cpu.dcache.demand_mshr_miss_latency::total    824699500                       # number of demand (read+write) MSHR miss cycles
system.cpu.dcache.overall_mshr_miss_latency::.cpu.data    824699500                       # number of overall MSHR miss cycles
system.cpu.dcache.overall_mshr_miss_latency::total    824699500                       # number of overall MSHR miss cycles
system.cpu.dcache.demand_mshr_miss_rate::.cpu.data     0.015995                       # mshr miss rate for demand accesses
system.cpu.dcache.demand_mshr_miss_rate::total     0.015995                       # mshr miss rate for demand accesses
system.cpu.dcache.overall_mshr_miss_rate::.cpu.data     0.015995                       # mshr miss rate for overall accesses
system.cpu.dcache.overall_mshr_miss_rate::total     0.015995                       # mshr miss rate for overall accesses
system.cpu.dcache.demand_avg_mshr_miss_latency::.cpu.data 72272.324950                       # average overall mshr miss latency
system.cpu.dcache.demand_avg_mshr_miss_latency::total 72272.324950                       # average overall mshr miss latency
system.cpu.dcache.overall_avg_mshr_miss_latency::.cpu.data 72272.324950                       # average overall mshr miss latency
system.cpu.dcache.overall_avg_mshr_miss_latency::total 72272.324950                       # average overall mshr miss latency
system.cpu.dcache.replacements                   7345                       # number of replacements
system.cpu.dcache.ReadReq_hits::.cpu.data       506339                       # number of ReadReq hits
system.cpu.dcache.ReadReq_hits::total          506339                       # number of ReadReq hits
system.cpu.dcache.ReadReq_misses::.cpu.data         9740                       # number of ReadReq misses
system.cpu.dcache.ReadReq_misses::total          9740                       # number of ReadReq misses
system.cpu.dcache.ReadReq_miss_latency::.cpu.data    711515500                       # number of ReadReq miss cycles
system.cpu.dcache.ReadReq_miss_latency::total    711515500                       # number of ReadReq miss cycles
system.cpu.dcache.ReadReq_accesses::.cpu.data       516079                       # number of ReadReq accesses(hits+misses)
system.cpu.dcache.ReadReq_accesses::total       516079                       # number of ReadReq accesses(hits+misses)
system.cpu.dcache.ReadReq_miss_rate::.cpu.data     0.018873                       # miss rate for ReadReq accesses
system.cpu.dcache.ReadReq_miss_rate::total     0.018873                       # miss rate for ReadReq accesses
system.cpu.dcache.ReadReq_avg_miss_latency::.cpu.data 73050.872690                       # average ReadReq miss latency
system.cpu.dcache.ReadReq_avg_miss_latency::total 73050.872690                       # average ReadReq miss latency
system.cpu.dcache.ReadReq_mshr_misses::.cpu.data         9740                       # number of ReadReq MSHR misses
system.cpu.dcache.ReadReq_mshr_misses::total         9740                       # number of ReadReq MSHR misses
system.cpu.dcache.ReadReq_mshr_miss_latency::.cpu.data    701775500                       # number of ReadReq MSHR miss cycles
system.cpu.dcache.ReadReq_mshr_miss_latency::total    701775500                       # number of ReadReq MSHR miss cycles
system.cpu.dcache.ReadReq_mshr_miss_rate::.cpu.data     0.018873                       # mshr miss rate for ReadReq accesses
system.cpu.dcache.ReadReq_mshr_miss_rate::total     0.018873                       # mshr miss rate for ReadReq accesses
system.cpu.dcache.ReadReq_avg_mshr_miss_latency::.cpu.data 72050.872690                       # average ReadReq mshr miss latency
system.cpu.dcache.ReadReq_avg_mshr_miss_latency::total 72050.872690                       # average ReadReq mshr miss latency
system.cpu.dcache.WriteReq_hits::.cpu.data       195640                       # number of WriteReq hits
system.cpu.dcache.WriteReq_hits::total         195640                       # number of WriteReq hits
system.cpu.dcache.WriteReq_misses::.cpu.data         1671                       # number of WriteReq misses
system.cpu.dcache.WriteReq_misses::total         1671                       # number of WriteReq misses
system.cpu.dcache.WriteReq_miss_latency::.cpu.data    124595000                       # number of WriteReq miss cycles
system.cpu.dcache.WriteReq_miss_latency::total    124595000                       # number of WriteReq miss cycles
system.cpu.dcache.WriteReq_accesses::.cpu.data       197311                       # number of WriteReq accesses(hits+misses)
system.cpu.dcache.WriteReq_accesses::total       197311                       # number of WriteReq accesses(hits+misses)
system.cpu.dcache.WriteReq_miss_rate::.cpu.data     0.008469                       # miss rate for WriteReq accesses
system.cpu.dcache.WriteReq_miss_rate::total     0.008469                       # miss rate for WriteReq accesses
system.cpu.dcache.WriteReq_avg_miss_latency::.cpu.data 74563.135847                       # average WriteReq miss latency
system.cpu.dcache.WriteReq_avg_miss_latency::total 74563.135847                       # average WriteReq miss latency
system.cpu.dcache.WriteReq_mshr_misses::.cpu.data         1671                       # number of WriteReq MSHR misses
system.cpu.dcache.WriteReq_mshr_misses::total         1671                       # number of WriteReq MSHR misses
system.cpu.dcache.WriteReq_mshr_miss_latency::.cpu.data    122924000                       # number of WriteReq MSHR miss cycles
system.cpu.dcache.WriteReq_mshr_miss_latency::total    122924000                       # number of WriteReq MSHR miss cycles
system.cpu.dcache.WriteReq_mshr_miss_rate::.cpu.data     0.008469                       # mshr miss rate for WriteReq accesses
system.cpu.dcache.WriteReq_mshr_miss_rate::total     0.008469                       # mshr miss rate for WriteReq accesses
system.cpu.dcache.WriteReq_avg_mshr_miss_latency::.cpu.data 73563.135847                       # average WriteReq mshr miss latency
system.cpu.dcache.WriteReq_avg_mshr_miss_latency::total 73563.135847                       # average WriteReq mshr miss latency
system.cpu.dcache.power_state.pwrStateResidencyTicks::UNDEFINED   4581415500                       # Cumulative time (in ticks) in various power states
system.cpu.dcache.tags.tagsinuse          3384.551534                       # Cycle average of tags in use
system.cpu.dcache.tags.total_refs              713390                       # Total number of references to valid blocks.
system.cpu.dcache.tags.sampled_refs             11411                       # Sample count of references to valid blocks.
system.cpu.dcache.tags.avg_refs             62.517746                       # Average number of references to valid blocks.
system.cpu.dcache.tags.warmup_cycle            174500                       # Cycle when the warmup percentage was hit.
system.cpu.dcache.tags.occ_blocks::.cpu.data  3384.551534                       # Average occupied blocks per requestor
system.cpu.dcache.tags.occ_percent::.cpu.data     0.826307                       # Average percentage of cache occupancy
system.cpu.dcache.tags.occ_percent::total     0.826307                       # Average percentage of cache occupancy
system.cpu.dcache.tags.occ_task_id_blocks::1024         4066                       # Occupied blocks per task id
system.cpu.dcache.tags.age_task_id_blocks_1024::0           16                       # Occupied blocks per task id
system.cpu.dcache.tags.age_task_id_blocks_1024::1          161                       # Occupied blocks per task id
system.cpu.dcache.tags.age_task_id_blocks_1024::2         2437                       # Occupied blocks per task id
system.cpu.dcache.tags.age_task_id_blocks_1024::3         1452                       # Occupied blocks per task id
system.cpu.dcache.tags.occ_task_id_percent::1024     0.992676                       # Percentage of cache occupancy per task id
system.cpu.dcache.tags.tag_accesses           1438191                       # Number of tag accesses
system.cpu.dcache.tags.data_accesses          1438191                       # Number of data accesses
system.cpu.dcache.tags.power_state.pwrStateResidencyTicks::UNDEFINED   4581415500                       # Cumulative time (in ticks) in various power states
system.cpu.dtb.rdAccesses                      516285                       # TLB accesses on read requests
system.cpu.dtb.wrAccesses                      197341                       # TLB accesses on write requests
system.cpu.dtb.rdMisses                          1361                       # TLB misses on read requests
system.cpu.dtb.wrMisses                           101                       # TLB misses on write requests
system.cpu.dtb.walker.power_state.pwrStateResidencyTicks::UNDEFINED   4581415500                       # Cumulative time (in ticks) in various power states
system.cpu.dtb_walker_cache.blocked_cycles::no_mshrs            0                       # number of cycles access was blocked
system.cpu.dtb_walker_cache.blocked_cycles::no_targets            0                       # number of cycles access was blocked
system.cpu.dtb_walker_cache.blocked::no_mshrs            0                       # number of cycles access was blocked
system.cpu.dtb_walker_cache.blocked::no_targets            0                       # number of cycles access was blocked
system.cpu.dtb_walker_cache.avg_blocked_cycles::no_mshrs          nan                       # average number of cycles each access was blocked
system.cpu.dtb_walker_cache.avg_blocked_cycles::no_targets          nan                       # average number of cycles each access was blocked
system.cpu.dtb_walker_cache.replacements            0                       # number of replacements
system.cpu.dtb_walker_cache.power_state.pwrStateResidencyTicks::UNDEFINED   4581415500                       # Cumulative time (in ticks) in various power states
system.cpu.dtb_walker_cache.tags.tagsinuse            0                       # Cycle average of tags in use
system.cpu.dtb_walker_cache.tags.total_refs            0                       # Total number of references to valid blocks.
system.cpu.dtb_walker_cache.tags.sampled_refs            0                       # Sample count of references to valid blocks.
system.cpu.dtb_walker_cache.tags.avg_refs          nan                       # Average number of references to valid blocks.
system.cpu.dtb_walker_cache.tags.warmup_cycle            0                       # Cycle when the warmup percentage was hit.
system.cpu.dtb_walker_cache.tags.tag_accesses            0                       # Number of tag accesses
system.cpu.dtb_walker_cache.tags.data_accesses            0                       # Number of data accesses
system.cpu.dtb_walker_cache.tags.power_state.pwrStateResidencyTicks::UNDEFINED   4581415500                       # Cumulative time (in ticks) in various power states
system.cpu.icache.demand_hits::.cpu.inst      2904589                       # number of demand (read+write) hits
system.cpu.icache.demand_hits::total          2904589                       # number of demand (read+write) hits
system.cpu.icache.overall_hits::.cpu.inst      2904589                       # number of overall hits
system.cpu.icache.overall_hits::total         2904589                       # number of overall hits
system.cpu.icache.demand_misses::.cpu.inst         1756                       # number of demand (read+write) misses
system.cpu.icache.demand_misses::total           1756                       # number of demand (read+write) misses
system.cpu.icache.overall_misses::.cpu.inst         1756                       # number of overall misses
system.cpu.icache.overall_misses::total          1756                       # number of overall misses
system.cpu.icache.demand_miss_latency::.cpu.inst    138844500                       # number of demand (read+write) miss cycles
system.cpu.icache.demand_miss_latency::total    138844500                       # number of demand (read+write) miss cycles
system.cpu.icache.overall_miss_latency::.cpu.inst    138844500                       # number of overall miss cycles
system.cpu.icache.overall_miss_latency::total    138844500                       # number of overall miss cycles
system.cpu.icache.demand_accesses::.cpu.inst      2906345                       # number of demand (read+write) accesses
system.cpu.icache.demand_accesses::total      2906345                       # number of demand (read+write) accesses
system.cpu.icache.overall_accesses::.cpu.inst      2906345                       # number of overall (read+write) accesses
system.cpu.icache.overall_accesses::total      2906345                       # number of overall (read+write) accesses
system.cpu.icache.demand_miss_rate::.cpu.inst     0.000604                       # miss rate for demand accesses
system.cpu.icache.demand_miss_rate::total     0.000604                       # miss rate for demand accesses
system.cpu.icache.overall_miss_rate::.cpu.inst     0.000604                       # miss rate for overall accesses
system.cpu.icache.overall_miss_rate::total     0.000604                       # miss rate for overall accesses
system.cpu.icache.demand_avg_miss_latency::.cpu.inst 79068.621868                       # average overall miss latency
system.cpu.icache.demand_avg_miss_latency::total 79068.621868                       # average overall miss latency
system.cpu.icache.overall_avg_miss_latency::.cpu.inst 79068.621868                       # average overall miss latency
system.cpu.icache.overall_avg_miss_latency::total 79068.621868                       # average overall miss latency
system.cpu.icache.blocked_cycles::no_mshrs            0                       # number of cycles access was blocked
system.cpu.icache.blocked_cycles::no_targets            0                       # number of cycles access was blocked
system.cpu.icache.blocked::no_mshrs                 0                       # number of cycles access was blocked
system.cpu.icache.blocked::no_targets               0                       # number of cycles access was blocked
system.cpu.icache.avg_blocked_cycles::no_mshrs          nan                       # average number of cycles each access was blocked
system.cpu.icache.avg_blocked_cycles::no_targets          nan                       # average number of cycles each access was blocked
system.cpu.icache.writebacks::.writebacks           62                       # number of writebacks
system.cpu.icache.writebacks::total                62                       # number of writebacks
system.cpu.icache.demand_mshr_misses::.cpu.inst         1756                       # number of demand (read+write) MSHR misses
system.cpu.icache.demand_mshr_misses::total         1756                       # number of demand (read+write) MSHR misses
system.cpu.icache.overall_mshr_misses::.cpu.inst         1756                       # number of overall MSHR misses
system.cpu.icache.overall_mshr_misses::total         1756                       # number of overall MSHR misses
system.cpu.icache.demand_mshr_miss_latency::.cpu.inst    137088500                       # number of demand (read+write) MSHR miss cycles
system.cpu.icache.demand_mshr_miss_latency::total    137088500                       # number of demand (read+write) MSHR miss cycles
system.cpu.icache.overall_mshr_miss_latency::.cpu.inst    137088500                       # number of overall MSHR miss cycles
system.cpu.icache.overall_mshr_miss_latency::total    137088500                       # number of overall MSHR miss cycles
system.cpu.icache.demand_mshr_miss_rate::.cpu.inst     0.000604                       # mshr miss rate for demand accesses
system.cpu.icache.demand_mshr_miss_rate::total     0.000604                       # mshr miss rate for demand accesses
system.cpu.icache.overall_mshr_miss_rate::.cpu.inst     0.000604                       # mshr miss rate for overall accesses
system.cpu.icache.overall_mshr_miss_rate::total     0.000604                       # mshr miss rate for overall accesses
system.cpu.icache.demand_avg_mshr_miss_latency::.cpu.inst 78068.621868                       # average overall mshr miss latency
system.cpu.icache.demand_avg_mshr_miss_latency::total 78068.621868                       # average overall mshr miss latency
system.cpu.icache.overall_avg_mshr_miss_latency::.cpu.inst 78068.621868                       # average overall mshr miss latency
system.cpu.icache.overall_avg_mshr_miss_latency::total 78068.621868                       # average overall mshr miss latency
system.cpu.icache.replacements                     62                       # number of replacements
system.cpu.icache.ReadReq_hits::.cpu.inst      2904589                       # number of ReadReq hits
system.cpu.icache.ReadReq_hits::total         2904589                       # number of ReadReq hits
system.cpu.icache.ReadReq_misses::.cpu.inst         1756                       # number of ReadReq misses
system.cpu.icache.ReadReq_misses::total          1756                       # number of ReadReq misses
system.cpu.icache.ReadReq_miss_latency::.cpu.inst    138844500                       # number of ReadReq miss cycles
system.cpu.icache.ReadReq_miss_latency::total    138844500                       # number of ReadReq miss cycles
system.cpu.icache.ReadReq_accesses::.cpu.inst      2906345                       # number of ReadReq accesses(hits+misses)
system.cpu.icache.ReadReq_accesses::total      2906345                       # number of ReadReq accesses(hits+misses)
system.cpu.icache.ReadReq_miss_rate::.cpu.inst     0.000604                       # miss rate for ReadReq accesses
system.cpu.icache.ReadReq_miss_rate::total     0.000604                       # miss rate for ReadReq accesses
system.cpu.icache.ReadReq_avg_miss_latency::.cpu.inst 79068.621868                       # average ReadReq miss latency
system.cpu.icache.ReadReq_avg_miss_latency::total 79068.621868                       # average ReadReq miss latency
system.cpu.icache.ReadReq_mshr_misses::.cpu.inst         1756                       # number of ReadReq MSHR misses
system.cpu.icache.ReadReq_mshr_misses::total         1756                       # number of ReadReq MSHR misses
system.cpu.icache.ReadReq_mshr_miss_latency::.cpu.inst    137088500                       # number of ReadReq MSHR miss cycles
system.cpu.icache.ReadReq_mshr_miss_latency::total    137088500                       # number of ReadReq MSHR miss cycles
system.cpu.icache.ReadReq_mshr_miss_rate::.cpu.inst     0.000604                       # mshr miss rate for ReadReq accesses
system.cpu.icache.ReadReq_mshr_miss_rate::total     0.000604                       # mshr miss rate for ReadReq accesses
system.cpu.icache.ReadReq_avg_mshr_miss_latency::.cpu.inst 78068.621868                       # average ReadReq mshr miss latency
system.cpu.icache.ReadReq_avg_mshr_miss_latency::total 78068.621868                       # average ReadReq mshr miss latency
system.cpu.icache.power_state.pwrStateResidencyTicks::UNDEFINED   4581415500                       # Cumulative time (in ticks) in various power states
system.cpu.icache.tags.tagsinuse           762.057402                       # Cycle average of tags in use
system.cpu.icache.tags.total_refs             2906345                       # Total number of references to valid blocks.
system.cpu.icache.tags.sampled_refs              1756                       # Sample count of references to valid blocks.
system.cpu.icache.tags.avg_refs           1655.093964                       # Average number of references to valid blocks.
system.cpu.icache.tags.warmup_cycle             87500                       # Cycle when the warmup percentage was hit.
system.cpu.icache.tags.occ_blocks::.cpu.inst   762.057402                       # Average occupied blocks per requestor
system.cpu.icache.tags.occ_percent::.cpu.inst     0.186049                       # Average percentage of cache occupancy
system.cpu.icache.tags.occ_percent::total     0.186049                       # Average percentage of cache occupancy
system.cpu.icache.tags.occ_task_id_blocks::1024         1694                       # Occupied blocks per task id
system.cpu.icache.tags.age_task_id_blocks_1024::0           51                       # Occupied blocks per task id
system.cpu.icache.tags.age_task_id_blocks_1024::1          306                       # Occupied blocks per task id
system.cpu.icache.tags.age_task_id_blocks_1024::2          647                       # Occupied blocks per task id
system.cpu.icache.tags.age_task_id_blocks_1024::3          690                       # Occupied blocks per task id
system.cpu.icache.tags.occ_task_id_percent::1024     0.413574                       # Percentage of cache occupancy per task id
system.cpu.icache.tags.tag_accesses           5814446                       # Number of tag accesses
system.cpu.icache.tags.data_accesses          5814446                       # Number of data accesses
system.cpu.icache.tags.power_state.pwrStateResidencyTicks::UNDEFINED   4581415500                       # Cumulative time (in ticks) in various power states
system.cpu.interrupts.clk_domain.clock           8000                       # Clock period in ticks
system.cpu.itb.rdAccesses                           0                       # TLB accesses on read requests
system.cpu.itb.wrAccesses                     2906461                       # TLB accesses on write requests
system.cpu.itb.rdMisses                             0                       # TLB misses on read requests
system.cpu.itb.wrMisses                           395                       # TLB misses on write requests
system.cpu.itb.walker.power_state.pwrStateResidencyTicks::UNDEFINED   4581415500                       # Cumulative time (in ticks) in various power states
system.cpu.itb_walker_cache.blocked_cycles::no_mshrs            0                       # number of cycles access was blocked
system.cpu.itb_walker_cache.blocked_cycles::no_targets            0                       # number of cycles access was blocked
system.cpu.itb_walker_cache.blocked::no_mshrs            0                       # number of cycles access was blocked
system.cpu.itb_walker_cache.blocked::no_targets            0                       # number of cycles access was blocked
system.cpu.itb_walker_cache.avg_blocked_cycles::no_mshrs          nan                       # average number of cycles each access was blocked
system.cpu.itb_walker_cache.avg_blocked_cycles::no_targets          nan                       # average number of cycles each access was blocked
system.cpu.itb_walker_cache.replacements            0                       # number of replacements
system.cpu.itb_walker_cache.power_state.pwrStateResidencyTicks::UNDEFINED   4581415500                       # Cumulative time (in ticks) in various power states
system.cpu.itb_walker_cache.tags.tagsinuse            0                       # Cycle average of tags in use
system.cpu.itb_walker_cache.tags.total_refs            0                       # Total number of references to valid blocks.
system.cpu.itb_walker_cache.tags.sampled_refs            0                       # Sample count of references to valid blocks.
system.cpu.itb_walker_cache.tags.avg_refs          nan                       # Average number of references to valid blocks.
system.cpu.itb_walker_cache.tags.warmup_cycle            0                       # Cycle when the warmup percentage was hit.
system.cpu.itb_walker_cache.tags.tag_accesses            0                       # Number of tag accesses
system.cpu.itb_walker_cache.tags.data_accesses            0                       # Number of data accesses
system.cpu.itb_walker_cache.tags.power_state.pwrStateResidencyTicks::UNDEFINED   4581415500                       # Cumulative time (in ticks) in various power states
system.cpu.power_state.pwrStateResidencyTicks::ON   4581415500                       # Cumulative time (in ticks) in various power states
system.cpu.thread_0.numInsts                        0                       # Number of Instructions committed
system.cpu.thread_0.numOps                          0                       # Number of Ops committed
system.cpu.thread_0.numMemRefs                      0                       # Number of Memory References
system.cpu_clk_domain.clock                       500                       # Clock period in ticks
system.cpu_voltage_domain.voltage                   1                       # Voltage in Volts
system.l2.demand_hits::.cpu.inst                    2                       # number of demand (read+write) hits
system.l2.demand_hits::.cpu.data                 1581                       # number of demand (read+write) hits
system.l2.demand_hits::total                     1583                       # number of demand (read+write) hits
system.l2.overall_hits::.cpu.inst                   2                       # number of overall hits
system.l2.overall_hits::.cpu.data                1581                       # number of overall hits
system.l2.overall_hits::total                    1583                       # number of overall hits
system.l2.demand_misses::.cpu.inst               1754                       # number of demand (read+write) misses
system.l2.demand_misses::.cpu.data               9830                       # number of demand (read+write) misses
system.l2.demand_misses::total                  11584                       # number of demand (read+write) misses
system.l2.overall_misses::.cpu.inst              1754                       # number of overall misses
system.l2.overall_misses::.cpu.data              9830                       # number of overall misses
system.l2.overall_misses::total                 11584                       # number of overall misses
system.l2.demand_miss_latency::.cpu.inst    134431500                       # number of demand (read+write) miss cycles
system.l2.demand_miss_latency::.cpu.data    790981500                       # number of demand (read+write) miss cycles
system.l2.demand_miss_latency::total        925413000                       # number of demand (read+write) miss cycles
system.l2.overall_miss_latency::.cpu.inst    134431500                       # number of overall miss cycles
system.l2.overall_miss_latency::.cpu.data    790981500                       # number of overall miss cycles
system.l2.overall_miss_latency::total       925413000                       # number of overall miss cycles
system.l2.demand_accesses::.cpu.inst             1756                       # number of demand (read+write) accesses
system.l2.demand_accesses::.cpu.data            11411                       # number of demand (read+write) accesses
system.l2.demand_accesses::total                13167                       # number of demand (read+write) accesses
system.l2.overall_accesses::.cpu.inst            1756                       # number of overall (read+write) accesses
system.l2.overall_accesses::.cpu.data           11411                       # number of overall (read+write) accesses
system.l2.overall_accesses::total               13167                       # number of overall (read+write) accesses
system.l2.demand_miss_rate::.cpu.inst        0.998861                       # miss rate for demand accesses
system.l2.demand_miss_rate::.cpu.data        0.861449                       # miss rate for demand accesses
system.l2.demand_miss_rate::total            0.879775                       # miss rate for demand accesses
system.l2.overall_miss_rate::.cpu.inst       0.998861                       # miss rate for overall accesses
system.l2.overall_miss_rate::.cpu.data       0.861449                       # miss rate for overall accesses
system.l2.overall_miss_rate::total           0.879775                       # miss rate for overall accesses
system.l2.demand_avg_miss_latency::.cpu.inst 76642.816420                       # average overall miss latency
system.l2.demand_avg_miss_latency::.cpu.data 80466.073245                       # average overall miss latency
system.l2.demand_avg_miss_latency::total 79887.171961                       # average overall miss latency
system.l2.overall_avg_miss_latency::.cpu.inst 76642.816420                       # average overall miss latency
system.l2.overall_avg_miss_latency::.cpu.data 80466.073245                       # average overall miss latency
system.l2.overall_avg_miss_latency::total 79887.171961                       # average overall miss latency
system.l2.blocked_cycles::no_mshrs                  0                       # number of cycles access was blocked
system.l2.blocked_cycles::no_targets                0                       # number of cycles access was blocked
system.l2.blocked::no_mshrs                         0                       # number of cycles access was blocked
system.l2.blocked::no_targets                       0                       # number of cycles access was blocked
system.l2.avg_blocked_cycles::no_mshrs            nan                       # average number of cycles each access was blocked
system.l2.avg_blocked_cycles::no_targets          nan                       # average number of cycles each access was blocked
system.l2.writebacks::.writebacks                 139                       # number of writebacks
system.l2.writebacks::total                       139                       # number of writebacks
system.l2.demand_mshr_misses::.cpu.inst          1754                       # number of demand (read+write) MSHR misses
system.l2.demand_mshr_misses::.cpu.data          9830                       # number of demand (read+write) MSHR misses
system.l2.demand_mshr_misses::total             11584                       # number of demand (read+write) MSHR misses
system.l2.overall_mshr_misses::.cpu.inst         1754                       # number of overall MSHR misses
system.l2.overall_mshr_misses::.cpu.data         9830                       # number of overall MSHR misses
system.l2.overall_mshr_misses::total            11584                       # number of overall MSHR misses
system.l2.demand_mshr_miss_latency::.cpu.inst    116891500                       # number of demand (read+write) MSHR miss cycles
system.l2.demand_mshr_miss_latency::.cpu.data    692681500                       # number of demand (read+write) MSHR miss cycles
system.l2.demand_mshr_miss_latency::total    809573000                       # number of demand (read+write) MSHR miss cycles
system.l2.overall_mshr_miss_latency::.cpu.inst    116891500                       # number of overall MSHR miss cycles
system.l2.overall_mshr_miss_latency::.cpu.data    692681500                       # number of overall MSHR miss cycles
system.l2.overall_mshr_miss_latency::total    809573000                       # number of overall MSHR miss cycles
system.l2.demand_mshr_miss_rate::.cpu.inst     0.998861                       # mshr miss rate for demand accesses
system.l2.demand_mshr_miss_rate::.cpu.data     0.861449                       # mshr miss rate for demand accesses
system.l2.demand_mshr_miss_rate::total       0.879775                       # mshr miss rate for demand accesses
system.l2.overall_mshr_miss_rate::.cpu.inst     0.998861                       # mshr miss rate for overall accesses
system.l2.overall_mshr_miss_rate::.cpu.data     0.861449                       # mshr miss rate for overall accesses
system.l2.overall_mshr_miss_rate::total      0.879775                       # mshr miss rate for overall accesses
system.l2.demand_avg_mshr_miss_latency::.cpu.inst 66642.816420                       # average overall mshr miss latency
system.l2.demand_avg_mshr_miss_latency::.cpu.data 70466.073245                       # average overall mshr miss latency
system.l2.demand_avg_mshr_miss_latency::total 69887.171961                       # average overall mshr miss latency
system.l2.overall_avg_mshr_miss_latency::.cpu.inst 66642.816420                       # average overall mshr miss latency
system.l2.overall_avg_mshr_miss_latency::.cpu.data 70466.073245                       # average overall mshr miss latency
system.l2.overall_avg_mshr_miss_latency::total 69887.171961                       # average overall mshr miss latency
system.l2.replacements                           1141                       # number of replacements
system.l2.WritebackDirty_hits::.writebacks         1492                       # number of WritebackDirty hits
system.l2.WritebackDirty_hits::total             1492                       # number of WritebackDirty hits
system.l2.WritebackDirty_accesses::.writebacks         1492                       # number of WritebackDirty accesses(hits+misses)
system.l2.WritebackDirty_accesses::total         1492                       # number of WritebackDirty accesses(hits+misses)
system.l2.WritebackClean_hits::.writebacks           62                       # number of WritebackClean hits
system.l2.WritebackClean_hits::total               62                       # number of WritebackClean hits
system.l2.WritebackClean_accesses::.writebacks           62                       # number of WritebackClean accesses(hits+misses)
system.l2.WritebackClean_accesses::total           62                       # number of WritebackClean accesses(hits+misses)
system.l2.CleanEvict_mshr_misses::.writebacks          101                       # number of CleanEvict MSHR misses
system.l2.CleanEvict_mshr_misses::total           101                       # number of CleanEvict MSHR misses
system.l2.CleanEvict_mshr_miss_rate::.writebacks          inf                       # mshr miss rate for CleanEvict accesses
system.l2.CleanEvict_mshr_miss_rate::total          inf                       # mshr miss rate for CleanEvict accesses
system.l2.ReadExReq_hits::.cpu.data               143                       # number of ReadExReq hits
system.l2.ReadExReq_hits::total                   143                       # number of ReadExReq hits
system.l2.ReadExReq_misses::.cpu.data            1528                       # number of ReadExReq misses
system.l2.ReadExReq_misses::total                1528                       # number of ReadExReq misses
system.l2.ReadExReq_miss_latency::.cpu.data    118916000                       # number of ReadExReq miss cycles
system.l2.ReadExReq_miss_latency::total     118916000                       # number of ReadExReq miss cycles
system.l2.ReadExReq_accesses::.cpu.data          1671                       # number of ReadExReq accesses(hits+misses)
system.l2.ReadExReq_accesses::total              1671                       # number of ReadExReq accesses(hits+misses)
system.l2.ReadExReq_miss_rate::.cpu.data     0.914423                       # miss rate for ReadExReq accesses
system.l2.ReadExReq_miss_rate::total         0.914423                       # miss rate for ReadExReq accesses
system.l2.ReadExReq_avg_miss_latency::.cpu.data 77824.607330                       # average ReadExReq miss latency
system.l2.ReadExReq_avg_miss_latency::total 77824.607330                       # average ReadExReq miss latency
system.l2.ReadExReq_mshr_misses::.cpu.data         1528                       # number of ReadExReq MSHR misses
system.l2.ReadExReq_mshr_misses::total           1528                       # number of ReadExReq MSHR misses
system.l2.ReadExReq_mshr_miss_latency::.cpu.data    103636000                       # number of ReadExReq MSHR miss cycles
system.l2.ReadExReq_mshr_miss_latency::total    103636000                       # number of ReadExReq MSHR miss cycles
system.l2.ReadExReq_mshr_miss_rate::.cpu.data     0.914423                       # mshr miss rate for ReadExReq accesses
system.l2.ReadExReq_mshr_miss_rate::total     0.914423                       # mshr miss rate for ReadExReq accesses
system.l2.ReadExReq_avg_mshr_miss_latency::.cpu.data 67824.607330                       # average ReadExReq mshr miss latency
system.l2.ReadExReq_avg_mshr_miss_latency::total 67824.607330                       # average ReadExReq mshr miss latency
system.l2.ReadCleanReq_hits::.cpu.inst              2                       # number of ReadCleanReq hits
system.l2.ReadCleanReq_hits::total                  2                       # number of ReadCleanReq hits
system.l2.ReadCleanReq_misses::.cpu.inst         1754                       # number of ReadCleanReq misses
system.l2.ReadCleanReq_misses::total             1754                       # number of ReadCleanReq misses
system.l2.ReadCleanReq_miss_latency::.cpu.inst    134431500                       # number of ReadCleanReq miss cycles
system.l2.ReadCleanReq_miss_latency::total    134431500                       # number of ReadCleanReq miss cycles
system.l2.ReadCleanReq_accesses::.cpu.inst         1756                       # number of ReadCleanReq accesses(hits+misses)
system.l2.ReadCleanReq_accesses::total           1756                       # number of ReadCleanReq accesses(hits+misses)
system.l2.ReadCleanReq_miss_rate::.cpu.inst     0.998861                       # miss rate for ReadCleanReq accesses
system.l2.ReadCleanReq_miss_rate::total      0.998861                       # miss rate for ReadCleanReq accesses
system.l2.ReadCleanReq_avg_miss_latency::.cpu.inst 76642.816420                       # average ReadCleanReq miss latency
system.l2.ReadCleanReq_avg_miss_latency::total 76642.816420                       # average ReadCleanReq miss latency
system.l2.ReadCleanReq_mshr_misses::.cpu.inst         1754                       # number of ReadCleanReq MSHR misses
system.l2.ReadCleanReq_mshr_misses::total         1754                       # number of ReadCleanReq MSHR misses
system.l2.ReadCleanReq_mshr_miss_latency::.cpu.inst    116891500                       # number of ReadCleanReq MSHR miss cycles
system.l2.ReadCleanReq_mshr_miss_latency::total    116891500                       # number of ReadCleanReq MSHR miss cycles
system.l2.ReadCleanReq_mshr_miss_rate::.cpu.inst     0.998861                       # mshr miss rate for ReadCleanReq accesses
system.l2.ReadCleanReq_mshr_miss_rate::total     0.998861                       # mshr miss rate for ReadCleanReq accesses
system.l2.ReadCleanReq_avg_mshr_miss_latency::.cpu.inst 66642.816420                       # average ReadCleanReq mshr miss latency
system.l2.ReadCleanReq_avg_mshr_miss_latency::total 66642.816420                       # average ReadCleanReq mshr miss latency
system.l2.ReadSharedReq_hits::.cpu.data          1438                       # number of ReadSharedReq hits
system.l2.ReadSharedReq_hits::total              1438                       # number of ReadSharedReq hits
system.l2.ReadSharedReq_misses::.cpu.data         8302                       # number of ReadSharedReq misses
system.l2.ReadSharedReq_misses::total            8302                       # number of ReadSharedReq misses
system.l2.ReadSharedReq_miss_latency::.cpu.data    672065500                       # number of ReadSharedReq miss cycles
system.l2.ReadSharedReq_miss_latency::total    672065500                       # number of ReadSharedReq miss cycles
system.l2.ReadSharedReq_accesses::.cpu.data         9740                       # number of ReadSharedReq accesses(hits+misses)
system.l2.ReadSharedReq_accesses::total          9740                       # number of ReadSharedReq accesses(hits+misses)
system.l2.ReadSharedReq_miss_rate::.cpu.data     0.852361                       # miss rate for ReadSharedReq accesses
system.l2.ReadSharedReq_miss_rate::total     0.852361                       # miss rate for ReadSharedReq accesses
system.l2.ReadSharedReq_avg_miss_latency::.cpu.data 80952.240424                       # average ReadSharedReq miss latency
system.l2.ReadSharedReq_avg_miss_latency::total 80952.240424                       # average ReadSharedReq miss latency
system.l2.ReadSharedReq_mshr_misses::.cpu.data         8302                       # number of ReadSharedReq MSHR misses
system.l2.ReadSharedReq_mshr_misses::total         8302                       # number of ReadSharedReq MSHR misses
system.l2.ReadSharedReq_mshr_miss_latency::.cpu.data    589045500                       # number of ReadSharedReq MSHR miss cycles
system.l2.ReadSharedReq_mshr_miss_latency::total    589045500                       # number of ReadSharedReq MSHR miss cycles
system.l2.ReadSharedReq_mshr_miss_rate::.cpu.data     0.852361                       # mshr miss rate for ReadSharedReq accesses
system.l2.ReadSharedReq_mshr_miss_rate::total     0.852361                       # mshr miss rate for ReadSharedReq accesses
system.l2.ReadSharedReq_avg_mshr_miss_latency::.cpu.data 70952.240424                       # average ReadSharedReq mshr miss latency
system.l2.ReadSharedReq_avg_mshr_miss_latency::total 70952.240424                       # average ReadSharedReq mshr miss latency
system.l2.power_state.pwrStateResidencyTicks::UNDEFINED   4581415500                       # Cumulative time (in ticks) in various power states
system.l2.tags.tagsinuse                  6262.705666                       # Cycle average of tags in use
system.l2.tags.total_refs                       20473                       # Total number of references to valid blocks.
system.l2.tags.sampled_refs                     11617                       # Sample count of references to valid blocks.
system.l2.tags.avg_refs                      1.762331                       # Average number of references to valid blocks.
system.l2.tags.warmup_cycle                     77000                       # Cycle when the warmup percentage was hit.
system.l2.tags.occ_blocks::.writebacks       0.846964                       # Average occupied blocks per requestor
system.l2.tags.occ_blocks::.cpu.inst       706.176058                       # Average occupied blocks per requestor
system.l2.tags.occ_blocks::.cpu.data      5555.682644                       # Average occupied blocks per requestor
system.l2.tags.occ_percent::.writebacks      0.000052                       # Average percentage of cache occupancy
system.l2.tags.occ_percent::.cpu.inst        0.043102                       # Average percentage of cache occupancy
system.l2.tags.occ_percent::.cpu.data        0.339092                       # Average percentage of cache occupancy
system.l2.tags.occ_percent::total            0.382245                       # Average percentage of cache occupancy
system.l2.tags.occ_task_id_blocks::1024         10476                       # Occupied blocks per task id
system.l2.tags.age_task_id_blocks_1024::0           58                       # Occupied blocks per task id
system.l2.tags.age_task_id_blocks_1024::1          399                       # Occupied blocks per task id
system.l2.tags.age_task_id_blocks_1024::2         2730                       # Occupied blocks per task id
system.l2.tags.age_task_id_blocks_1024::3         7289                       # Occupied blocks per task id
system.l2.tags.occ_task_id_percent::1024     0.639404                       # Percentage of cache occupancy per task id
system.l2.tags.tag_accesses                     32191                       # Number of tag accesses
system.l2.tags.data_accesses                    32191                       # Number of data accesses
system.l2.tags.power_state.pwrStateResidencyTicks::UNDEFINED   4581415500                       # Cumulative time (in ticks) in various power states
system.mem_ctrls.avgPriority_.writebacks::samples       139.00                       # Average QoS priority value for accepted requests
system.mem_ctrls.avgPriority_.cpu.inst::samples      1754.00                       # Average QoS priority value for accepted requests
system.mem_ctrls.avgPriority_.cpu.data::samples      9826.00                       # Average QoS priority value for accepted requests
system.mem_ctrls.priorityMinLatency      0.000000018750                       # per QoS priority minimum request to response latency (s)
system.mem_ctrls.priorityMaxLatency      0.003750558500                       # per QoS priority maximum request to response latency (s)
system.mem_ctrls.numReadWriteTurnArounds            7                       # Number of turnarounds from READ to WRITE
system.mem_ctrls.numWriteReadTurnArounds            7                       # Number of turnarounds from WRITE to READ
system.mem_ctrls.numStayReadState               24470                       # Number of times bus staying in READ state
system.mem_ctrls.numStayWriteState                109                       # Number of times bus staying in WRITE state
system.mem_ctrls.readReqs                       11584                       # Number of read requests accepted
system.mem_ctrls.writeReqs                        139                       # Number of write requests accepted
system.mem_ctrls.readBursts                     11584                       # Number of controller read bursts, including those serviced by the write queue
system.mem_ctrls.writeBursts                      139                       # Number of controller write bursts, including those merged in the write queue
system.mem_ctrls.servicedByWrQ                      4                       # Number of controller read bursts serviced by the write queue
system.mem_ctrls.mergedWrBursts                     0                       # Number of controller write bursts merged with an existing one
system.mem_ctrls.neitherReadNorWriteReqs            0                       # Number of requests that are neither read nor write
system.mem_ctrls.avgRdQLen                       1.00                       # Average read queue length when enqueuing
system.mem_ctrls.avgWrQLen                       2.40                       # Average write queue length when enqueuing
system.mem_ctrls.numRdRetry                         0                       # Number of times read queue was full causing retry
system.mem_ctrls.numWrRetry                         0                       # Number of times write queue was full causing retry
system.mem_ctrls.readPktSize::0                     0                       # Read request sizes (log2)
system.mem_ctrls.readPktSize::1                     0                       # Read request sizes (log2)
system.mem_ctrls.readPktSize::2                     0                       # Read request sizes (log2)
system.mem_ctrls.readPktSize::3                     0                       # Read request sizes (log2)
system.mem_ctrls.readPktSize::4                     0                       # Read request sizes (log2)
system.mem_ctrls.readPktSize::5                     0                       # Read request sizes (log2)
system.mem_ctrls.readPktSize::6                 11584                       # Read request sizes (log2)
system.mem_ctrls.writePktSize::0                    0                       # Write request sizes (log2)
system.mem_ctrls.writePktSize::1                    0                       # Write request sizes (log2)
system.mem_ctrls.writePktSize::2                    0                       # Write request sizes (log2)
system.mem_ctrls.writePktSize::3                    0                       # Write request sizes (log2)
system.mem_ctrls.writePktSize::4                    0                       # Write request sizes (log2)
system.mem_ctrls.writePktSize::5                    0                       # Write request sizes (log2)
system.mem_ctrls.writePktSize::6                  139                       # Write request sizes (log2)
system.mem_ctrls.rdQLenPdf::0                   11579                       # What read queue length does an incoming req see
system.mem_ctrls.rdQLenPdf::1                       1                       # What read queue length does an incoming req see
system.mem_ctrls.rdQLenPdf::2                       0                       # What read queue length does an incoming req see
system.mem_ctrls.rdQLenPdf::3                       0                       # What read queue length does an incoming req see
system.mem_ctrls.rdQLenPdf::4                       0                       # What read queue length does an incoming req see
system.mem_ctrls.rdQLenPdf::5                       0                       # What read queue length does an incoming req see
system.mem_ctrls.rdQLenPdf::6                       0                       # What read queue length does an incoming req see
system.mem_ctrls.rdQLenPdf::7                       0                       # What read queue length does an incoming req see
system.mem_ctrls.rdQLenPdf::8                       0                       # What read queue length does an incoming req see
system.mem_ctrls.rdQLenPdf::9                       0                       # What read queue length does an incoming req see
system.mem_ctrls.rdQLenPdf::10                      0                       # What read queue length does an incoming req see
system.mem_ctrls.rdQLenPdf::11                      0                       # What read queue length does an incoming req see
system.mem_ctrls.rdQLenPdf::12                      0                       # What read queue length does an incoming req see
system.mem_ctrls.rdQLenPdf::13                      0                       # What read queue length does an incoming req see
system.mem_ctrls.rdQLenPdf::14                      0                       # What read queue length does an incoming req see
system.mem_ctrls.rdQLenPdf::15                      0                       # What read queue length does an incoming req see
system.mem_ctrls.rdQLenPdf::16                      0                       # What read queue length does an incoming req see
system.mem_ctrls.rdQLenPdf::17                      0                       # What read queue length does an incoming req see
system.mem_ctrls.rdQLenPdf::18                      0                       # What read queue length does an incoming req see
system.mem_ctrls.rdQLenPdf::19                      0                       # What read queue length does an incoming req see
system.mem_ctrls.rdQLenPdf::20                      0                       # What read queue length does an incoming req see
system.mem_ctrls.rdQLenPdf::21                      0                       # What read queue length does an incoming req see
system.mem_ctrls.rdQLenPdf::22                      0                       # What read queue length does an incoming req see
system.mem_ctrls.rdQLenPdf::23                      0                       # What read queue length does an incoming req see
system.mem_ctrls.rdQLenPdf::24                      0                       # What read queue length does an incoming req see
system.mem_ctrls.rdQLenPdf::25                      0                       # What read queue length does an incoming req see
system.mem_ctrls.rdQLenPdf::26                      0                       # What read queue length does an incoming req see
system.mem_ctrls.rdQLenPdf::27                      0                       # What read queue length does an incoming req see
system.mem_ctrls.rdQLenPdf::28                      0                       # What read queue length does an incoming req see
system.mem_ctrls.rdQLenPdf::29                      0                       # What read queue length does an incoming req see
system.mem_ctrls.rdQLenPdf::30                      0                       # What read queue length does an incoming req see
system.mem_ctrls.rdQLenPdf::31                      0                       # What read queue length does an incoming req see
system.mem_ctrls.wrQLenPdf::0                       1                       # What write queue length does an incoming req see
system.mem_ctrls.wrQLenPdf::1                       1                       # What write queue length does an incoming req see
system.mem_ctrls.wrQLenPdf::2                       1                       # What write queue length does an incoming req see
system.mem_ctrls.wrQLenPdf::3                       1                       # What write queue length does an incoming req see
system.mem_ctrls.wrQLenPdf::4                       1                       # What write queue length does an incoming req see
system.mem_ctrls.wrQLenPdf::5                       1                       # What write queue length does an incoming req see
system.mem_ctrls.wrQLenPdf::6                       1                       # What write queue length does an incoming req see
system.mem_ctrls.wrQLenPdf::7                       1                       # What write queue length does an incoming req see
system.mem_ctrls.wrQLenPdf::8                       1                       # What write queue length does an incoming req see
system.mem_ctrls.wrQLenPdf::9                       1                       # What write queue length does an incoming req see
system.mem_ctrls.wrQLenPdf::10                      1                       # What write queue length does an incoming req see
system.mem_ctrls.wrQLenPdf::11                      1                       # What write queue length does an incoming req see
system.mem_ctrls.wrQLenPdf::12                      1                       # What write queue length does an incoming req see
system.mem_ctrls.wrQLenPdf::13                      1                       # What write queue length does an incoming req see
system.mem_ctrls.wrQLenPdf::14                      1                       # What write queue length does an incoming req see
system.mem_ctrls.wrQLenPdf::15                      3                       # What write queue length does an incoming req see
system.mem_ctrls.wrQLenPdf::16                      3                       # What write queue length does an incoming req see
system.mem_ctrls.wrQLenPdf::17                      8                       # What write queue length does an incoming req see
system.mem_ctrls.wrQLenPdf::18                      8                       # What write queue length does an incoming req see
system.mem_ctrls.wrQLenPdf::19                      8                       # What write queue length does an incoming req see
system.mem_ctrls.wrQLenPdf::20                      8                       # What write queue length does an incoming req see
system.mem_ctrls.wrQLenPdf::21                      8                       # What write queue length does an incoming req see
system.mem_ctrls.wrQLenPdf::22                      8                       # What write queue length does an incoming req see
system.mem_ctrls.wrQLenPdf::23                      7                       # What write queue length does an incoming req see
system.mem_ctrls.wrQLenPdf::24                      7                       # What write queue length does an incoming req see
system.mem_ctrls.wrQLenPdf::25                      7                       # What write queue length does an incoming req see
system.mem_ctrls.wrQLenPdf::26                      7                       # What write queue length does an incoming req see
system.mem_ctrls.wrQLenPdf::27                      7                       # What write queue length does an incoming req see
system.mem_ctrls.wrQLenPdf::28                      7                       # What write queue length does an incoming req see
system.mem_ctrls.wrQLenPdf::29                      7                       # What write queue length does an incoming req see
system.mem_ctrls.wrQLenPdf::30                      7                       # What write queue length does an incoming req see
system.mem_ctrls.wrQLenPdf::31                      7                       # What write queue length does an incoming req see
system.mem_ctrls.wrQLenPdf::32                      7                       # What write queue length does an incoming req see
system.mem_ctrls.wrQLenPdf::33                      0                       # What write queue length does an incoming req see
system.mem_ctrls.wrQLenPdf::34                      0                       # What write queue length does an incoming req see
system.mem_ctrls.wrQLenPdf::35                      0                       # What write queue length does an incoming req see
system.mem_ctrls.wrQLenPdf::36                      0                       # What write queue length does an incoming req see
system.mem_ctrls.wrQLenPdf::37                      0                       # What write queue length does an incoming req see
system.mem_ctrls.wrQLenPdf::38                      0                       # What write queue length does an incoming req see
system.mem_ctrls.wrQLenPdf::39                      0                       # What write queue length does an incoming req see
system.mem_ctrls.wrQLenPdf::40                      0                       # What write queue length does an incoming req see
system.mem_ctrls.wrQLenPdf::41                      0                       # What write queue length does an incoming req see
system.mem_ctrls.wrQLenPdf::42                      0                       # What write queue length does an incoming req see
system.mem_ctrls.wrQLenPdf::43                      0                       # What write queue length does an incoming req see
system.mem_ctrls.wrQLenPdf::44                      0                       # What write queue length does an incoming req see
system.mem_ctrls.wrQLenPdf::45                      0                       # What write queue length does an incoming req see
system.mem_ctrls.wrQLenPdf::46                      0                       # What write queue length does an incoming req see
system.mem_ctrls.wrQLenPdf::47                      0                       # What write queue length does an incoming req see
system.mem_ctrls.wrQLenPdf::48                      0                       # What write queue length does an incoming req see
system.mem_ctrls.wrQLenPdf::49                      0                       # What write queue length does an incoming req see
system.mem_ctrls.wrQLenPdf::50                      0                       # What write queue length does an incoming req see
system.mem_ctrls.wrQLenPdf::51                      0                       # What write queue length does an incoming req see
system.mem_ctrls.wrQLenPdf::52                      0                       # What write queue length does an incoming req see
system.mem_ctrls.wrQLenPdf::53                      0                       # What write queue length does an incoming req see
system.mem_ctrls.wrQLenPdf::54                      0                       # What write queue length does an incoming req see
system.mem_ctrls.wrQLenPdf::55                      0                       # What write queue length does an incoming req see
system.mem_ctrls.wrQLenPdf::56                      0                       # What write queue length does an incoming req see
system.mem_ctrls.wrQLenPdf::57                      0                       # What write queue length does an incoming req see
system.mem_ctrls.wrQLenPdf::58                      0                       # What write queue length does an incoming req see
system.mem_ctrls.wrQLenPdf::59                      0                       # What write queue length does an incoming req see
system.mem_ctrls.wrQLenPdf::60                      0                       # What write queue length does an incoming req see
system.mem_ctrls.wrQLenPdf::61                      0                       # What write queue length does an incoming req see
system.mem_ctrls.wrQLenPdf::62                      0                       # What write queue length does an incoming req see
system.mem_ctrls.wrQLenPdf::63                      0                       # What write queue length does an incoming req see
system.mem_ctrls.rdPerTurnAround::samples            7                       # Reads before turning the bus around for writes
system.mem_ctrls.rdPerTurnAround::mean    1636.714286                       # Reads before turning the bus around for writes
system.mem_ctrls.rdPerTurnAround::gmean    255.101517                       # Reads before turning the bus around for writes
system.mem_ctrls.rdPerTurnAround::stdev   3882.776614                       # Reads before turning the bus around for writes
system.mem_ctrls.rdPerTurnAround::0-511             6     85.71%     85.71% # Reads before turning the bus around for writes
system.mem_ctrls.rdPerTurnAround::10240-10751            1     14.29%    100.00% # Reads before turning the bus around for writes
system.mem_ctrls.rdPerTurnAround::total             7                       # Reads before turning the bus around for writes
system.mem_ctrls.wrPerTurnAround::samples            7                       # Writes before turning the bus around for reads
system.mem_ctrls.wrPerTurnAround::mean      16.571429                       # Writes before turning the bus around for reads
system.mem_ctrls.wrPerTurnAround::gmean     16.547599                       # Writes before turning the bus around for reads
system.mem_ctrls.wrPerTurnAround::stdev      0.975900                       # Writes before turning the bus around for reads
system.mem_ctrls.wrPerTurnAround::16                5     71.43%     71.43% # Writes before turning the bus around for reads
system.mem_ctrls.wrPerTurnAround::18                2     28.57%    100.00% # Writes before turning the bus around for reads
system.mem_ctrls.wrPerTurnAround::total             7                       # Writes before turning the bus around for reads
system.mem_ctrls.bytesReadWrQ                     256                       # Total number of bytes read from write queue
system.mem_ctrls.bytesReadSys                  741376                       # Total read bytes from the system interface side
system.mem_ctrls.bytesWrittenSys                 8896                       # Total written bytes from the system interface side
system.mem_ctrls.avgRdBWSys                    161.82                       # Average system read bandwidth in MiByte/s
system.mem_ctrls.avgWrBWSys                      1.94                       # Average system write bandwidth in MiByte/s
system.mem_ctrls.totGap                    4581341500                       # Total gap between requests
system.mem_ctrls.avgGap                     390799.41                       # Average gap between requests
system.mem_ctrls.requestorReadBytes::.cpu.inst       112256                       # Per-requestor bytes read from memory
system.mem_ctrls.requestorReadBytes::.cpu.data       628864                       # Per-requestor bytes read from memory
system.mem_ctrls.requestorWriteBytes::.writebacks         7424                       # Per-requestor bytes write to memory
system.mem_ctrls.requestorReadRate::.cpu.inst 24502470.906644463539                       # Per-requestor bytes read from memory rate (Bytes/sec)
system.mem_ctrls.requestorReadRate::.cpu.data 137264127.211338937283                       # Per-requestor bytes read from memory rate (Bytes/sec)
[...]
system.mem_ctrls.dram.bw_total::.cpu.data    137320005                       # Total bandwidth to/from this memory (bytes/s)
system.mem_ctrls.dram.bw_total::total       163764234                       # Total bandwidth to/from this memory (bytes/s)
system.mem_ctrls.dram.readBursts                11580                       # Number of DRAM read bursts
system.mem_ctrls.dram.writeBursts                 116                       # Number of DRAM write bursts
system.mem_ctrls.dram.perBankRdBursts::0          781                       # Per bank write bursts
system.mem_ctrls.dram.perBankRdBursts::1          566                       # Per bank write bursts
system.mem_ctrls.dram.perBankRdBursts::2          805                       # Per bank write bursts
system.mem_ctrls.dram.perBankRdBursts::3          831                       # Per bank write bursts
system.mem_ctrls.dram.perBankRdBursts::4          919                       # Per bank write bursts
system.mem_ctrls.dram.perBankRdBursts::5          924                       # Per bank write bursts
system.mem_ctrls.dram.perBankRdBursts::6          596                       # Per bank write bursts
system.mem_ctrls.dram.perBankRdBursts::7          631                       # Per bank write bursts
system.mem_ctrls.dram.perBankRdBursts::8          710                       # Per bank write bursts
system.mem_ctrls.dram.perBankRdBursts::9          772                       # Per bank write bursts
system.mem_ctrls.dram.perBankRdBursts::10          847                       # Per bank write bursts
system.mem_ctrls.dram.perBankRdBursts::11          614                       # Per bank write bursts
system.mem_ctrls.dram.perBankRdBursts::12          675                       # Per bank write bursts
system.mem_ctrls.dram.perBankRdBursts::13          518                       # Per bank write bursts
system.mem_ctrls.dram.perBankRdBursts::14          717                       # Per bank write bursts
system.mem_ctrls.dram.perBankRdBursts::15          674                       # Per bank write bursts
system.mem_ctrls.dram.perBankWrBursts::0           30                       # Per bank write bursts
system.mem_ctrls.dram.perBankWrBursts::1            9                       # Per bank write bursts
system.mem_ctrls.dram.perBankWrBursts::2            0                       # Per bank write bursts
system.mem_ctrls.dram.perBankWrBursts::3            7                       # Per bank write bursts
system.mem_ctrls.dram.perBankWrBursts::4            7                       # Per bank write bursts
system.mem_ctrls.dram.perBankWrBursts::5           15                       # Per bank write bursts
system.mem_ctrls.dram.perBankWrBursts::6            0                       # Per bank write bursts
system.mem_ctrls.dram.perBankWrBursts::7           10                       # Per bank write bursts
system.mem_ctrls.dram.perBankWrBursts::8            1                       # Per bank write bursts
system.mem_ctrls.dram.perBankWrBursts::9           25                       # Per bank write bursts
system.mem_ctrls.dram.perBankWrBursts::10            0                       # Per bank write bursts
system.mem_ctrls.dram.perBankWrBursts::11            6                       # Per bank write bursts
system.mem_ctrls.dram.perBankWrBursts::12            0                       # Per bank write bursts
system.mem_ctrls.dram.perBankWrBursts::13            0                       # Per bank write bursts
system.mem_ctrls.dram.perBankWrBursts::14            0                       # Per bank write bursts
system.mem_ctrls.dram.perBankWrBursts::15            6                       # Per bank write bursts
system.mem_ctrls.dram.totQLat               119068500                       # Total ticks spent queuing
system.mem_ctrls.dram.totBusLat              57900000                       # Total ticks spent in databus transfers
system.mem_ctrls.dram.totMemAccLat          336193500                       # Total ticks spent from burst creation until serviced by the DRAM
system.mem_ctrls.dram.avgQLat                10282.25                       # Average queueing delay per DRAM burst
system.mem_ctrls.dram.avgBusLat               5000.00                       # Average bus latency per DRAM burst
system.mem_ctrls.dram.avgMemAccLat           29032.25                       # Average memory access latency per DRAM burst
system.mem_ctrls.dram.readRowHits                7006                       # Number of row buffer hits during reads
system.mem_ctrls.dram.writeRowHits                 90                       # Number of row buffer hits during writes
system.mem_ctrls.dram.readRowHitRate            60.50                       # Row buffer hit rate for reads
system.mem_ctrls.dram.writeRowHitRate           77.59                       # Row buffer hit rate for writes
system.mem_ctrls.dram.bytesPerActivate::samples         4595                       # Bytes accessed per row activation
system.mem_ctrls.dram.bytesPerActivate::mean   162.555822                       # Bytes accessed per row activation
system.mem_ctrls.dram.bytesPerActivate::gmean   109.684094                       # Bytes accessed per row activation
system.mem_ctrls.dram.bytesPerActivate::stdev   206.172982                       # Bytes accessed per row activation
system.mem_ctrls.dram.bytesPerActivate::0-127         2625     57.13%     57.13% # Bytes accessed per row activation
system.mem_ctrls.dram.bytesPerActivate::128-255         1235     26.88%     84.00% # Bytes accessed per row activation
system.mem_ctrls.dram.bytesPerActivate::256-383          313      6.81%     90.82% # Bytes accessed per row activation
system.mem_ctrls.dram.bytesPerActivate::384-511          118      2.57%     93.38% # Bytes accessed per row activation
system.mem_ctrls.dram.bytesPerActivate::512-639           59      1.28%     94.67% # Bytes accessed per row activation
system.mem_ctrls.dram.bytesPerActivate::640-767           44      0.96%     95.63% # Bytes accessed per row activation
system.mem_ctrls.dram.bytesPerActivate::768-895           27      0.59%     96.21% # Bytes accessed per row activation
system.mem_ctrls.dram.bytesPerActivate::896-1023           27      0.59%     96.80% # Bytes accessed per row activation
system.mem_ctrls.dram.bytesPerActivate::1024-1151          147      3.20%    100.00% # Bytes accessed per row activation
system.mem_ctrls.dram.bytesPerActivate::total         4595                       # Bytes accessed per row activation
system.mem_ctrls.dram.bytesRead                741120                       # Total number of bytes read from DRAM
system.mem_ctrls.dram.bytesWritten               7424                       # Total number of bytes written to DRAM
system.mem_ctrls.dram.avgRdBW              161.766598                       # Average DRAM read bandwidth in MiBytes/s
system.mem_ctrls.dram.avgWrBW                1.620460                       # Average DRAM write bandwidth in MiBytes/s
system.mem_ctrls.dram.peakBW                 12800.00                       # Theoretical peak bandwidth in MiByte/s
system.mem_ctrls.dram.busUtil                    1.28                       # Data bus utilization in percentage
system.mem_ctrls.dram.busUtilRead                1.26                       # Data bus utilization in percentage for reads
system.mem_ctrls.dram.busUtilWrite               0.01                       # Data bus utilization in percentage for writes
system.mem_ctrls.dram.pageHitRate               60.67                       # Row buffer hit rate, read and write combined
system.mem_ctrls.dram.power_state.pwrStateResidencyTicks::UNDEFINED   4581415500                       # Cumulative time (in ticks) in various power states
system.mem_ctrls.dram.rank0.actEnergy        15600900                       # Energy for activate commands per rank (pJ)
system.mem_ctrls.dram.rank0.preEnergy         8276895                       # Energy for precharge commands per rank (pJ)
system.mem_ctrls.dram.rank0.readEnergy       43218420                       # Energy for read commands per rank (pJ)
system.mem_ctrls.dram.rank0.writeEnergy        407160                       # Energy for write commands per rank (pJ)
system.mem_ctrls.dram.rank0.refreshEnergy 361408320.000000                       # Energy for refresh commands per rank (pJ)
system.mem_ctrls.dram.rank0.actBackEnergy   1641100110                       # Energy for active background per rank (pJ)
system.mem_ctrls.dram.rank0.preBackEnergy    377284800                       # Energy for precharge background per rank (pJ)
system.mem_ctrls.dram.rank0.actPowerDownEnergy            0                       # Energy for active power-down per rank (pJ)
system.mem_ctrls.dram.rank0.prePowerDownEnergy            0                       # Energy for precharge power-down per rank (pJ)
system.mem_ctrls.dram.rank0.selfRefreshEnergy            0                       # Energy for self refresh per rank (pJ)
system.mem_ctrls.dram.rank0.totalEnergy    2447296605                       # Total energy per rank (pJ)
system.mem_ctrls.dram.rank0.averagePower   534.179143                       # Core power per rank (mW)
system.mem_ctrls.dram.rank0.totalIdleTime            0                       # Total Idle time Per DRAM Rank
system.mem_ctrls.dram.rank0.pwrStateTime::IDLE    964935750                       # Time in different power states
system.mem_ctrls.dram.rank0.pwrStateTime::REF    152880000                       # Time in different power states
system.mem_ctrls.dram.rank0.pwrStateTime::SREF            0                       # Time in different power states
system.mem_ctrls.dram.rank0.pwrStateTime::PRE_PDN            0                       # Time in different power states
system.mem_ctrls.dram.rank0.pwrStateTime::ACT   3463599750                       # Time in different power states
system.mem_ctrls.dram.rank0.pwrStateTime::ACT_PDN            0                       # Time in different power states
system.mem_ctrls.dram.rank1.actEnergy        17243100                       # Energy for activate commands per rank (pJ)
system.mem_ctrls.dram.rank1.preEnergy         9161130                       # Energy for precharge commands per rank (pJ)
system.mem_ctrls.dram.rank1.readEnergy       39462780                       # Energy for read commands per rank (pJ)
system.mem_ctrls.dram.rank1.writeEnergy        198360                       # Energy for write commands per rank (pJ)
system.mem_ctrls.dram.rank1.refreshEnergy 361408320.000000                       # Energy for refresh commands per rank (pJ)
system.mem_ctrls.dram.rank1.actBackEnergy   1739344740                       # Energy for active background per rank (pJ)
system.mem_ctrls.dram.rank1.preBackEnergy    294552480                       # Energy for precharge background per rank (pJ)
system.mem_ctrls.dram.rank1.actPowerDownEnergy            0                       # Energy for active power-down per rank (pJ)
system.mem_ctrls.dram.rank1.prePowerDownEnergy            0                       # Energy for precharge power-down per rank (pJ)
system.mem_ctrls.dram.rank1.selfRefreshEnergy            0                       # Energy for self refresh per rank (pJ)
system.mem_ctrls.dram.rank1.totalEnergy    2461370910                       # Total energy per rank (pJ)
system.mem_ctrls.dram.rank1.averagePower   537.251186                       # Core power per rank (mW)
system.mem_ctrls.dram.rank1.totalIdleTime            0                       # Total Idle time Per DRAM Rank
system.mem_ctrls.dram.rank1.pwrStateTime::IDLE    750159500                       # Time in different power states
system.mem_ctrls.dram.rank1.pwrStateTime::REF    152880000                       # Time in different power states
system.mem_ctrls.dram.rank1.pwrStateTime::SREF            0                       # Time in different power states
system.mem_ctrls.dram.rank1.pwrStateTime::PRE_PDN            0                       # Time in different power states
system.mem_ctrls.dram.rank1.pwrStateTime::ACT   3678376000                       # Time in different power states
system.mem_ctrls.dram.rank1.pwrStateTime::ACT_PDN            0                       # Time in different power states
system.mem_ctrls.power_state.pwrStateResidencyTicks::UNDEFINED   4581415500                       # Cumulative time (in ticks) in various power states
system.membus.trans_dist::ReadResp              10056                       # Transaction distribution
system.membus.trans_dist::WritebackDirty          139                       # Transaction distribution
system.membus.trans_dist::CleanEvict              352                       # Transaction distribution
system.membus.trans_dist::ReadExReq              1528                       # Transaction distribution
system.membus.trans_dist::ReadExResp             1528                       # Transaction distribution
system.membus.trans_dist::ReadSharedReq         10056                       # Transaction distribution
system.membus.pkt_count_system.l2.mem_side_port::system.mem_ctrls.port        23659                       # Packet count per connected requestor and responder (bytes)
system.membus.pkt_count_system.l2.mem_side_port::total        23659                       # Packet count per connected requestor and responder (bytes)
system.membus.pkt_count::total                  23659                       # Packet count per connected requestor and responder (bytes)
system.membus.pkt_size_system.l2.mem_side_port::system.mem_ctrls.port       750272                       # Cumulative packet size per connected requestor and responder (bytes)
system.membus.pkt_size_system.l2.mem_side_port::total       750272                       # Cumulative packet size per connected requestor and responder (bytes)
system.membus.pkt_size::total                  750272                       # Cumulative packet size per connected requestor and responder (bytes)
system.membus.snoops                                0                       # Total snoops (count)
system.membus.snoopTraffic                          0                       # Total snoop traffic (bytes)
system.membus.snoop_fanout::samples             11584                       # Request fanout histogram
system.membus.snoop_fanout::mean                    0                       # Request fanout histogram
system.membus.snoop_fanout::stdev                   0                       # Request fanout histogram
system.membus.snoop_fanout::underflows              0      0.00%      0.00% # Request fanout histogram
system.membus.snoop_fanout::0                   11584    100.00%    100.00% # Request fanout histogram
system.membus.snoop_fanout::1                       0      0.00%    100.00% # Request fanout histogram
system.membus.snoop_fanout::overflows               0      0.00%    100.00% # Request fanout histogram
system.membus.snoop_fanout::min_value               0                       # Request fanout histogram
system.membus.snoop_fanout::max_value               0                       # Request fanout histogram
system.membus.snoop_fanout::total               11584                       # Request fanout histogram
system.membus.power_state.pwrStateResidencyTicks::UNDEFINED   4581415500                       # Cumulative time (in ticks) in various power states
system.membus.reqLayer2.occupancy            12641000                       # Layer occupancy (ticks)
system.membus.reqLayer2.utilization               0.3                       # Layer utilization (%)
system.membus.respLayer1.occupancy           62177000                       # Layer occupancy (ticks)
system.membus.respLayer1.utilization              1.4                       # Layer utilization (%)
system.tol2bus.trans_dist::ReadResp             11496                       # Transaction distribution
system.tol2bus.trans_dist::WritebackDirty         1631                       # Transaction distribution
system.tol2bus.trans_dist::WritebackClean           62                       # Transaction distribution
system.tol2bus.trans_dist::CleanEvict            6855                       # Transaction distribution
system.tol2bus.trans_dist::ReadExReq             1671                       # Transaction distribution
system.tol2bus.trans_dist::ReadExResp            1671                       # Transaction distribution
system.tol2bus.trans_dist::ReadCleanReq          1756                       # Transaction distribution
system.tol2bus.trans_dist::ReadSharedReq         9740                       # Transaction distribution
system.tol2bus.pkt_count_system.cpu.icache.mem_side_port::system.l2.cpu_side_port         3574                       # Packet count per connected requestor and responder (bytes)
system.tol2bus.pkt_count_system.cpu.dcache.mem_side_port::system.l2.cpu_side_port        30167                       # Packet count per connected requestor and responder (bytes)
system.tol2bus.pkt_count::total                 33741                       # Packet count per connected requestor and responder (bytes)
system.tol2bus.pkt_size_system.cpu.icache.mem_side_port::system.l2.cpu_side_port       116352                       # Cumulative packet size per connected requestor and responder (bytes)
system.tol2bus.pkt_size_system.cpu.dcache.mem_side_port::system.l2.cpu_side_port       825792                       # Cumulative packet size per connected requestor and responder (bytes)
system.tol2bus.pkt_size::total                 942144                       # Cumulative packet size per connected requestor and responder (bytes)
system.tol2bus.snoops                            1141                       # Total snoops (count)
system.tol2bus.snoopTraffic                      8896                       # Total snoop traffic (bytes)
system.tol2bus.snoop_fanout::samples            14308                       # Request fanout histogram
system.tol2bus.snoop_fanout::mean            0.052488                       # Request fanout histogram
system.tol2bus.snoop_fanout::stdev           0.223017                       # Request fanout histogram
system.tol2bus.snoop_fanout::underflows             0      0.00%      0.00% # Request fanout histogram
system.tol2bus.snoop_fanout::0                  13557     94.75%     94.75% # Request fanout histogram
system.tol2bus.snoop_fanout::1                    751      5.25%    100.00% # Request fanout histogram
system.tol2bus.snoop_fanout::2                      0      0.00%    100.00% # Request fanout histogram
system.tol2bus.snoop_fanout::3                      0      0.00%    100.00% # Request fanout histogram
system.tol2bus.snoop_fanout::4                      0      0.00%    100.00% # Request fanout histogram
system.tol2bus.snoop_fanout::overflows              0      0.00%    100.00% # Request fanout histogram
system.tol2bus.snoop_fanout::min_value              0                       # Request fanout histogram
system.tol2bus.snoop_fanout::max_value              1                       # Request fanout histogram
system.tol2bus.snoop_fanout::total              14308                       # Request fanout histogram
system.tol2bus.power_state.pwrStateResidencyTicks::UNDEFINED   4581415500                       # Cumulative time (in ticks) in various power states
system.tol2bus.reqLayer0.occupancy           11841000                       # Layer occupancy (ticks)
system.tol2bus.reqLayer0.utilization              0.3                       # Layer utilization (%)
system.tol2bus.respLayer0.occupancy           2634000                       # Layer occupancy (ticks)
system.tol2bus.respLayer0.utilization             0.1                       # Layer utilization (%)
system.tol2bus.respLayer1.occupancy          17116500                       # Layer occupancy (ticks)
system.tol2bus.respLayer1.utilization             0.4                       # Layer utilization (%)
system.voltage_domain.voltage                       1                       # Voltage in Volts

---------- End Simulation Statistics   ----------
