
---------- Begin Simulation Statistics ----------
final_tick                                55099783500                       # Number of ticks from beginning of simulation (restored from checkpoints and never reset)
host_inst_rate                                 711249                       # Simulator instruction rate (inst/s)
host_mem_usage                                 718564                       # Number of bytes of host memory used
host_op_rate                                  1130680                       # Simulator op (including micro ops) rate (op/s)
host_seconds                                    41.01                       # Real time elapsed on the host
host_tick_rate                             1343442753                       # Simulator tick rate (ticks/s)
sim_freq                                 1000000000000                       # Frequency of simulated ticks
sim_insts                                    29170998                       # Number of instructions simulated
sim_ops                                      46373553                       # Number of ops (including micro ops) simulated
sim_seconds                                  0.055100                       # Number of seconds simulated
sim_ticks                                 55099783500                       # Number of ticks simulated
system.cpu.Branches                           2495132                       # Number of branches fetched
system.cpu.committedInsts                    29170998                       # Number of instructions committed
system.cpu.committedOps                      46373553                       # Number of ops (including micro ops) committed
system.cpu.idle_fraction                     0.000000                       # Percentage of idle cycles
system.cpu.not_idle_fraction                 1.000000                       # Percentage of non-idle cycles
system.cpu.numCycles                        110199567                       # number of cpu cycles simulated
system.cpu.numWorkItemsCompleted                    0                       # number of work items this cpu completed
system.cpu.numWorkItemsStarted                      0                       # number of work items this cpu started
system.cpu.num_busy_cycles               110199566.998000                       # Number of busy cycles
system.cpu.num_cc_register_reads              8950376                       # number of times the CC registers were read
system.cpu.num_cc_register_writes            15259866                       # number of times the CC registers were written
system.cpu.num_conditional_control_insts      1393684                       # number of instructions that are conditional controls
system.cpu.num_fp_alu_accesses                9130444                       # Number of float alu accesses
system.cpu.num_fp_insts                       9130444                       # number of float instructions
system.cpu.num_fp_register_reads              9979372                       # number of times the floating registers were read
system.cpu.num_fp_register_writes             8007910                       # number of times the floating registers were written
system.cpu.num_func_calls                      268670                       # number of times a function call or return occured
system.cpu.num_idle_cycles                   0.002000                       # Number of idle cycles
system.cpu.num_int_alu_accesses              40720266                       # Number of integer alu accesses
system.cpu.num_int_insts                     40720266                       # number of integer instructions
system.cpu.num_int_register_reads            89201624                       # number of times the integer registers were read
system.cpu.num_int_register_writes           34379465                       # number of times the integer registers were written
system.cpu.num_load_insts                    12199932                       # Number of load instructions
system.cpu.num_mem_refs                      14543357                       # number of memory refs
system.cpu.num_store_insts                    2343425                       # Number of store instructions
system.cpu.num_vec_alu_accesses                     0                       # Number of vector alu accesses
system.cpu.num_vec_insts                            0                       # number of vector instructions
system.cpu.num_vec_register_reads                   0                       # number of times the vector registers were read
system.cpu.num_vec_register_writes                  0                       # number of times the vector registers were written
system.cpu.op_class::No_OpClass                221829      0.48%      0.48% # Class of executed instruction
system.cpu.op_class::IntAlu                  25303820     54.56%     55.04% # Class of executed instruction
system.cpu.op_class::IntMult                  1092368      2.36%     57.40% # Class of executed instruction
system.cpu.op_class::IntDiv                     35967      0.08%     57.48% # Class of executed instruction
system.cpu.op_class::FloatAdd                 2044676      4.41%     61.89% # Class of executed instruction
system.cpu.op_class::FloatCmp                       0      0.00%     61.89% # Class of executed instruction
system.cpu.op_class::FloatCvt                    1184      0.00%     61.89% # Class of executed instruction
system.cpu.op_class::FloatMult                      0      0.00%     61.89% # Class of executed instruction
system.cpu.op_class::FloatMultAcc                   0      0.00%     61.89% # Class of executed instruction
system.cpu.op_class::FloatDiv                       0      0.00%     61.89% # Class of executed instruction
system.cpu.op_class::FloatMisc                      0      0.00%     61.89% # Class of executed instruction
system.cpu.op_class::FloatSqrt                      0      0.00%     61.89% # Class of executed instruction
system.cpu.op_class::SimdAdd                     6636      0.01%     61.90% # Class of executed instruction
system.cpu.op_class::SimdAddAcc                     0      0.00%     61.90% # Class of executed instruction
system.cpu.op_class::SimdAlu                   618073      1.33%     63.23% # Class of executed instruction
system.cpu.op_class::SimdCmp                        0      0.00%     63.23% # Class of executed instruction
system.cpu.op_class::SimdCvt                    13882      0.03%     63.26% # Class of executed instruction
system.cpu.op_class::SimdMisc                  291058      0.63%     63.89% # Class of executed instruction
system.cpu.op_class::SimdMult                       0      0.00%     63.89% # Class of executed instruction
system.cpu.op_class::SimdMultAcc                    0      0.00%     63.89% # Class of executed instruction
system.cpu.op_class::SimdShift                    401      0.00%     63.89% # Class of executed instruction
system.cpu.op_class::SimdShiftAcc                   0      0.00%     63.89% # Class of executed instruction
system.cpu.op_class::SimdDiv                        0      0.00%     63.89% # Class of executed instruction
system.cpu.op_class::SimdSqrt                       0      0.00%     63.89% # Class of executed instruction
system.cpu.op_class::SimdFloatAdd              945420      2.04%     65.93% # Class of executed instruction
system.cpu.op_class::SimdFloatAlu                   0      0.00%     65.93% # Class of executed instruction
system.cpu.op_class::SimdFloatCmp                   0      0.00%     65.93% # Class of executed instruction
system.cpu.op_class::SimdFloatCvt              142000      0.31%     66.24% # Class of executed instruction
system.cpu.op_class::SimdFloatDiv               28470      0.06%     66.30% # Class of executed instruction
system.cpu.op_class::SimdFloatMisc                  0      0.00%     66.30% # Class of executed instruction
system.cpu.op_class::SimdFloatMult            1084700      2.34%     68.64% # Class of executed instruction
system.cpu.op_class::SimdFloatMultAcc               0      0.00%     68.64% # Class of executed instruction
system.cpu.op_class::SimdFloatSqrt                 90      0.00%     68.64% # Class of executed instruction
system.cpu.op_class::SimdReduceAdd                  0      0.00%     68.64% # Class of executed instruction
system.cpu.op_class::SimdReduceAlu                  0      0.00%     68.64% # Class of executed instruction
system.cpu.op_class::SimdReduceCmp                  0      0.00%     68.64% # Class of executed instruction
system.cpu.op_class::SimdFloatReduceAdd             0      0.00%     68.64% # Class of executed instruction
system.cpu.op_class::SimdFloatReduceCmp             0      0.00%     68.64% # Class of executed instruction
system.cpu.op_class::SimdAes                        0      0.00%     68.64% # Class of executed instruction
system.cpu.op_class::SimdAesMix                     0      0.00%     68.64% # Class of executed instruction
system.cpu.op_class::SimdSha1Hash                   0      0.00%     68.64% # Class of executed instruction
system.cpu.op_class::SimdSha1Hash2                  0      0.00%     68.64% # Class of executed instruction
system.cpu.op_class::SimdSha256Hash                 0      0.00%     68.64% # Class of executed instruction
system.cpu.op_class::SimdSha256Hash2                0      0.00%     68.64% # Class of executed instruction
system.cpu.op_class::SimdShaSigma2                  0      0.00%     68.64% # Class of executed instruction
system.cpu.op_class::SimdShaSigma3                  0      0.00%     68.64% # Class of executed instruction
system.cpu.op_class::SimdPredAlu                    0      0.00%     68.64% # Class of executed instruction
system.cpu.op_class::MemRead                  9630585     20.77%     89.41% # Class of executed instruction
system.cpu.op_class::MemWrite                 1502591      3.24%     92.65% # Class of executed instruction
system.cpu.op_class::FloatMemRead             2569347      5.54%     98.19% # Class of executed instruction
system.cpu.op_class::FloatMemWrite             840834      1.81%    100.00% # Class of executed instruction
system.cpu.op_class::IprAccess                      0      0.00%    100.00% # Class of executed instruction
system.cpu.op_class::InstPrefetch                   0      0.00%    100.00% # Class of executed instruction
system.cpu.op_class::total                   46373931                       # Class of executed instruction
system.cpu.workload.numSyscalls                    80                       # Number of system calls
system.membus.snoop_filter.hit_multi_requests            0                       # Number of requests hitting in the snoop filter with multiple (>1) holders of the requested data.
system.membus.snoop_filter.hit_multi_snoops            0                       # Number of snoops hitting in the snoop filter with multiple (>1) holders of the requested data.
system.membus.snoop_filter.hit_single_requests         3063                       # Number of requests hitting in the snoop filter with a single holder of the requested data.
system.membus.snoop_filter.hit_single_snoops            0                       # Number of snoops hitting in the snoop filter with a single holder of the requested data.
system.membus.snoop_filter.tot_requests         18544                       # Total number of requests made to the snoop filter.
system.membus.snoop_filter.tot_snoops               0                       # Total number of snoops made to the snoop filter.
system.tol2bus.snoop_filter.hit_multi_requests            0                       # Number of requests hitting in the snoop filter with multiple (>1) holders of the requested data.
system.tol2bus.snoop_filter.hit_multi_snoops            0                       # Number of snoops hitting in the snoop filter with multiple (>1) holders of the requested data.
system.tol2bus.snoop_filter.hit_single_requests        10289                       # Number of requests hitting in the snoop filter with a single holder of the requested data.
system.tol2bus.snoop_filter.hit_single_snoops          972                       # Number of snoops hitting in the snoop filter with a single holder of the requested data.
system.tol2bus.snoop_filter.tot_requests        26678                       # Total number of requests made to the snoop filter.
system.tol2bus.snoop_filter.tot_snoops            972                       # Total number of snoops made to the snoop filter.
system.clk_domain.clock                          1000                       # Clock period in ticks
system.cpu.dcache.demand_hits::.cpu.data     14528733                       # number of demand (read+write) hits
system.cpu.dcache.demand_hits::total         14528733                       # number of demand (read+write) hits
system.cpu.dcache.overall_hits::.cpu.data     14528733                       # number of overall hits
system.cpu.dcache.overall_hits::total        14528733                       # number of overall hits
system.cpu.dcache.demand_misses::.cpu.data        14385                       # number of demand (read+write) misses
system.cpu.dcache.demand_misses::total          14385                       # number of demand (read+write) misses
system.cpu.dcache.overall_misses::.cpu.data        14385                       # number of overall misses
system.cpu.dcache.overall_misses::total         14385                       # number of overall misses
system.cpu.dcache.demand_miss_latency::.cpu.data   1116373000                       # number of demand (read+write) miss cycles
system.cpu.dcache.demand_miss_latency::total   1116373000                       # number of demand (read+write) miss cycles
system.cpu.dcache.overall_miss_latency::.cpu.data   1116373000                       # number of overall miss cycles
system.cpu.dcache.overall_miss_latency::total   1116373000                       # number of overall miss cycles
system.cpu.dcache.demand_accesses::.cpu.data     14543118                       # number of demand (read+write) accesses
system.cpu.dcache.demand_accesses::total     14543118                       # number of demand (read+write) accesses
system.cpu.dcache.overall_accesses::.cpu.data     14543118                       # number of overall (read+write) accesses
system.cpu.dcache.overall_accesses::total     14543118                       # number of overall (read+write) accesses
system.cpu.dcache.demand_miss_rate::.cpu.data     0.000989                       # miss rate for demand accesses
system.cpu.dcache.demand_miss_rate::total     0.000989                       # miss rate for demand accesses
system.cpu.dcache.overall_miss_rate::.cpu.data     0.000989                       # miss rate for overall accesses
system.cpu.dcache.overall_miss_rate::total     0.000989                       # miss rate for overall accesses
system.cpu.dcache.demand_avg_miss_latency::.cpu.data 77606.743135                       # average overall miss latency
system.cpu.dcache.demand_avg_miss_latency::total 77606.743135                       # average overall miss latency
system.cpu.dcache.overall_avg_miss_latency::.cpu.data 77606.743135                       # average overall miss latency
system.cpu.dcache.overall_avg_miss_latency::total 77606.743135                       # average overall miss latency
system.cpu.dcache.blocked_cycles::no_mshrs            0                       # number of cycles access was blocked
system.cpu.dcache.blocked_cycles::no_targets            0                       # number of cycles access was blocked
system.cpu.dcache.blocked::no_mshrs                 0                       # number of cycles access was blocked
system.cpu.dcache.blocked::no_targets               0                       # number of cycles access was blocked
system.cpu.dcache.avg_blocked_cycles::no_mshrs          nan                       # average number of cycles each access was blocked
system.cpu.dcache.avg_blocked_cycles::no_targets          nan                       # average number of cycles each access was blocked
system.cpu.dcache.writebacks::.writebacks         1975                       # number of writebacks
system.cpu.dcache.writebacks::total              1975                       # number of writebacks
system.cpu.dcache.demand_mshr_misses::.cpu.data        14385                       # number of demand (read+write) MSHR misses
system.cpu.dcache.demand_mshr_misses::total        14385                       # number of demand (read+write) MSHR misses
system.cpu.dcache.overall_mshr_misses::.cpu.data        14385                       # number of overall MSHR misses
system.cpu.dcache.overall_mshr_misses::total        14385                       # number of overall MSHR misses
system.cpu.dcache.demand_mshr_miss_latency::.cpu.data   1101988000                       # number of demand (read+write) MSHR miss cycles
system.cpu.dcache.demand_mshr_miss_latency::total   1101988000                       # number of demand (read+write) MSHR miss cycles
system.cpu.dcache.overall_mshr_miss_latency::.cpu.data   1101988000                       # number of overall MSHR miss cycles
system.cpu.dcache.overall_mshr_miss_latency::total   1101988000                       # number of overall MSHR miss cycles
system.cpu.dcache.demand_mshr_miss_rate::.cpu.data     0.000989                       # mshr miss rate for demand accesses
system.cpu.dcache.demand_mshr_miss_rate::total     0.000989                       # mshr miss rate for demand accesses
system.cpu.dcache.overall_mshr_miss_rate::.cpu.data     0.000989                       # mshr miss rate for overall accesses
system.cpu.dcache.overall_mshr_miss_rate::total     0.000989                       # mshr miss rate for overall accesses
system.cpu.dcache.demand_avg_mshr_miss_latency::.cpu.data 76606.743135                       # average overall mshr miss latency
system.cpu.dcache.demand_avg_mshr_miss_latency::total 76606.743135                       # average overall mshr miss latency
system.cpu.dcache.overall_avg_mshr_miss_latency::.cpu.data 76606.743135                       # average overall mshr miss latency
system.cpu.dcache.overall_avg_mshr_miss_latency::total 76606.743135                       # average overall mshr miss latency
system.cpu.dcache.replacements                  10289                       # number of replacements
system.cpu.dcache.ReadReq_hits::.cpu.data     12190602                       # number of ReadReq hits
system.cpu.dcache.ReadReq_hits::total        12190602                       # number of ReadReq hits
system.cpu.dcache.ReadReq_misses::.cpu.data         9170                       # number of ReadReq misses
system.cpu.dcache.ReadReq_misses::total          9170                       # number of ReadReq misses
system.cpu.dcache.ReadReq_miss_latency::.cpu.data    710352500                       # number of ReadReq miss cycles
system.cpu.dcache.ReadReq_miss_latency::total    710352500                       # number of ReadReq miss cycles
system.cpu.dcache.ReadReq_accesses::.cpu.data     12199772                       # number of ReadReq accesses(hits+misses)
system.cpu.dcache.ReadReq_accesses::total     12199772                       # number of ReadReq accesses(hits+misses)
system.cpu.dcache.ReadReq_miss_rate::.cpu.data     0.000752                       # miss rate for ReadReq accesses
system.cpu.dcache.ReadReq_miss_rate::total     0.000752                       # miss rate for ReadReq accesses
system.cpu.dcache.ReadReq_avg_miss_latency::.cpu.data 77464.830971                       # average ReadReq miss latency
system.cpu.dcache.ReadReq_avg_miss_latency::total 77464.830971                       # average ReadReq miss latency
system.cpu.dcache.ReadReq_mshr_misses::.cpu.data         9170                       # number of ReadReq MSHR misses
system.cpu.dcache.ReadReq_mshr_misses::total         9170                       # number of ReadReq MSHR misses
system.cpu.dcache.ReadReq_mshr_miss_latency::.cpu.data    701182500                       # number of ReadReq MSHR miss cycles
system.cpu.dcache.ReadReq_mshr_miss_latency::total    701182500                       # number of ReadReq MSHR miss cycles
system.cpu.dcache.ReadReq_mshr_miss_rate::.cpu.data     0.000752                       # mshr miss rate for ReadReq accesses
system.cpu.dcache.ReadReq_mshr_miss_rate::total     0.000752                       # mshr miss rate for ReadReq accesses
system.cpu.dcache.ReadReq_avg_mshr_miss_latency::.cpu.data 76464.830971                       # average ReadReq mshr miss latency
system.cpu.dcache.ReadReq_avg_mshr_miss_latency::total 76464.830971                       # average ReadReq mshr miss latency
system.cpu.dcache.WriteReq_hits::.cpu.data      2338131                       # number of WriteReq hits
system.cpu.dcache.WriteReq_hits::total        2338131                       # number of WriteReq hits
system.cpu.dcache.WriteReq_misses::.cpu.data         5215                       # number of WriteReq misses
system.cpu.dcache.WriteReq_misses::total         5215                       # number of WriteReq misses
system.cpu.dcache.WriteReq_miss_latency::.cpu.data    406020500                       # number of WriteReq miss cycles
system.cpu.dcache.WriteReq_miss_latency::total    406020500                       # number of WriteReq miss cycles
system.cpu.dcache.WriteReq_accesses::.cpu.data      2343346                       # number of WriteReq accesses(hits+misses)
system.cpu.dcache.WriteReq_accesses::total      2343346                       # number of WriteReq accesses(hits+misses)
system.cpu.dcache.WriteReq_miss_rate::.cpu.data     0.002225                       # miss rate for WriteReq accesses
system.cpu.dcache.WriteReq_miss_rate::total     0.002225                       # miss rate for WriteReq accesses
system.cpu.dcache.WriteReq_avg_miss_latency::.cpu.data 77856.279962                       # average WriteReq miss latency
system.cpu.dcache.WriteReq_avg_miss_latency::total 77856.279962                       # average WriteReq miss latency
system.cpu.dcache.WriteReq_mshr_misses::.cpu.data         5215                       # number of WriteReq MSHR misses
system.cpu.dcache.WriteReq_mshr_misses::total         5215                       # number of WriteReq MSHR misses
system.cpu.dcache.WriteReq_mshr_miss_latency::.cpu.data    400805500                       # number of WriteReq MSHR miss cycles
system.cpu.dcache.WriteReq_mshr_miss_latency::total    400805500                       # number of WriteReq MSHR miss cycles
system.cpu.dcache.WriteReq_mshr_miss_rate::.cpu.data     0.002225                       # mshr miss rate for WriteReq accesses
system.cpu.dcache.WriteReq_mshr_miss_rate::total     0.002225                       # mshr miss rate for WriteReq accesses
system.cpu.dcache.WriteReq_avg_mshr_miss_latency::.cpu.data 76856.279962                       # average WriteReq mshr miss latency
system.cpu.dcache.WriteReq_avg_mshr_miss_latency::total 76856.279962                       # average WriteReq mshr miss latency
system.cpu.dcache.power_state.pwrStateResidencyTicks::UNDEFINED  55099783500                       # Cumulative time (in ticks) in various power states
system.cpu.dcache.tags.tagsinuse          4061.404146                       # Cycle average of tags in use
system.cpu.dcache.tags.total_refs            14543118                       # Total number of references to valid blocks.
system.cpu.dcache.tags.sampled_refs             14385                       # Sample count of references to valid blocks.
system.cpu.dcache.tags.avg_refs           1010.991867                       # Average number of references to valid blocks.
system.cpu.dcache.tags.warmup_cycle            174500                       # Cycle when the warmup percentage was hit.
system.cpu.dcache.tags.occ_blocks::.cpu.data  4061.404146                       # Average occupied blocks per requestor
system.cpu.dcache.tags.occ_percent::.cpu.data     0.991554                       # Average percentage of cache occupancy
system.cpu.dcache.tags.occ_percent::total     0.991554                       # Average percentage of cache occupancy
system.cpu.dcache.tags.occ_task_id_blocks::1024         4096                       # Occupied blocks per task id
system.cpu.dcache.tags.age_task_id_blocks_1024::0           45                       # Occupied blocks per task id
system.cpu.dcache.tags.age_task_id_blocks_1024::1           94                       # Occupied blocks per task id
system.cpu.dcache.tags.age_task_id_blocks_1024::2           37                       # Occupied blocks per task id
system.cpu.dcache.tags.age_task_id_blocks_1024::3          404                       # Occupied blocks per task id
system.cpu.dcache.tags.age_task_id_blocks_1024::4         3516                       # Occupied blocks per task id
system.cpu.dcache.tags.occ_task_id_percent::1024            1                       # Percentage of cache occupancy per task id
system.cpu.dcache.tags.tag_accesses         930773937                       # Number of tag accesses
system.cpu.dcache.tags.data_accesses        930773937                       # Number of data accesses
system.cpu.dcache.tags.power_state.pwrStateResidencyTicks::UNDEFINED  55099783500                       # Cumulative time (in ticks) in various power states
system.cpu.dtb.rdAccesses                    12199984                       # TLB accesses on read requests
system.cpu.dtb.wrAccesses                     2343432                       # TLB accesses on write requests
system.cpu.dtb.rdMisses                          1334                       # TLB misses on read requests
system.cpu.dtb.wrMisses                           211                       # TLB misses on write requests
system.cpu.dtb.walker.power_state.pwrStateResidencyTicks::UNDEFINED  55099783500                       # Cumulative time (in ticks) in various power states
system.cpu.dtb_walker_cache.blocked_cycles::no_mshrs            0                       # number of cycles access was blocked
system.cpu.dtb_walker_cache.blocked_cycles::no_targets            0                       # number of cycles access was blocked
system.cpu.dtb_walker_cache.blocked::no_mshrs            0                       # number of cycles access was blocked
system.cpu.dtb_walker_cache.blocked::no_targets            0                       # number of cycles access was blocked
system.cpu.dtb_walker_cache.avg_blocked_cycles::no_mshrs          nan                       # average number of cycles each access was blocked
system.cpu.dtb_walker_cache.avg_blocked_cycles::no_targets          nan                       # average number of cycles each access was blocked
system.cpu.dtb_walker_cache.replacements            0                       # number of replacements
system.cpu.dtb_walker_cache.power_state.pwrStateResidencyTicks::UNDEFINED  55099783500                       # Cumulative time (in ticks) in various power states
system.cpu.dtb_walker_cache.tags.tagsinuse            0                       # Cycle average of tags in use
system.cpu.dtb_walker_cache.tags.total_refs            0                       # Total number of references to valid blocks.
system.cpu.dtb_walker_cache.tags.sampled_refs            0                       # Sample count of references to valid blocks.
system.cpu.dtb_walker_cache.tags.avg_refs          nan                       # Average number of references to valid blocks.
system.cpu.dtb_walker_cache.tags.warmup_cycle            0                       # Cycle when the warmup percentage was hit.
system.cpu.dtb_walker_cache.tags.tag_accesses            0                       # Number of tag accesses
system.cpu.dtb_walker_cache.tags.data_accesses            0                       # Number of data accesses
system.cpu.dtb_walker_cache.tags.power_state.pwrStateResidencyTicks::UNDEFINED  55099783500                       # Cumulative time (in ticks) in various power states
system.cpu.icache.demand_hits::.cpu.inst     39295693                       # number of demand (read+write) hits
system.cpu.icache.demand_hits::total         39295693                       # number of demand (read+write) hits
system.cpu.icache.overall_hits::.cpu.inst     39295693                       # number of overall hits
system.cpu.icache.overall_hits::total        39295693                       # number of overall hits
system.cpu.icache.demand_misses::.cpu.inst         2004                       # number of demand (read+write) misses
system.cpu.icache.demand_misses::total           2004                       # number of demand (read+write) misses
system.cpu.icache.overall_misses::.cpu.inst         2004                       # number of overall misses
system.cpu.icache.overall_misses::total          2004                       # number of overall misses
system.cpu.icache.demand_miss_latency::.cpu.inst    159020500                       # number of demand (read+write) miss cycles
system.cpu.icache.demand_miss_latency::total    159020500                       # number of demand (read+write) miss cycles
system.cpu.icache.overall_miss_latency::.cpu.inst    159020500                       # number of overall miss cycles
system.cpu.icache.overall_miss_latency::total    159020500                       # number of overall miss cycles
system.cpu.icache.demand_accesses::.cpu.inst     39297697                       # number of demand (read+write) accesses
system.cpu.icache.demand_accesses::total     39297697                       # number of demand (read+write) accesses
system.cpu.icache.overall_accesses::.cpu.inst     39297697                       # number of overall (read+write) accesses
system.cpu.icache.overall_accesses::total     39297697                       # number of overall (read+write) accesses
system.cpu.icache.demand_miss_rate::.cpu.inst     0.000051                       # miss rate for demand accesses
system.cpu.icache.demand_miss_rate::total     0.000051                       # miss rate for demand accesses
system.cpu.icache.overall_miss_rate::.cpu.inst     0.000051                       # miss rate for overall accesses
system.cpu.icache.overall_miss_rate::total     0.000051                       # miss rate for overall accesses
system.cpu.icache.demand_avg_miss_latency::.cpu.inst 79351.546906                       # average overall miss latency
system.cpu.icache.demand_avg_miss_latency::total 79351.546906                       # average overall miss latency
system.cpu.icache.overall_avg_miss_latency::.cpu.inst 79351.546906                       # average overall miss latency
system.cpu.icache.overall_avg_miss_latency::total 79351.546906                       # average overall miss latency
system.cpu.icache.blocked_cycles::no_mshrs            0                       # number of cycles access was blocked
system.cpu.icache.blocked_cycles::no_targets            0                       # number of cycles access was blocked
system.cpu.icache.blocked::no_mshrs                 0                       # number of cycles access was blocked
system.cpu.icache.blocked::no_targets               0                       # number of cycles access was blocked
system.cpu.icache.avg_blocked_cycles::no_mshrs          nan                       # average number of cycles each access was blocked
system.cpu.icache.avg_blocked_cycles::no_targets          nan                       # average number of cycles each access was blocked
system.cpu.icache.demand_mshr_misses::.cpu.inst         2004                       # number of demand (read+write) MSHR misses
system.cpu.icache.demand_mshr_misses::total         2004                       # number of demand (read+write) MSHR misses
system.cpu.icache.overall_mshr_misses::.cpu.inst         2004                       # number of overall MSHR misses
system.cpu.icache.overall_mshr_misses::total         2004                       # number of overall MSHR misses
system.cpu.icache.demand_mshr_miss_latency::.cpu.inst    157016500                       # number of demand (read+write) MSHR miss cycles
system.cpu.icache.demand_mshr_miss_latency::total    157016500                       # number of demand (read+write) MSHR miss cycles
system.cpu.icache.overall_mshr_miss_latency::.cpu.inst    157016500                       # number of overall MSHR miss cycles
system.cpu.icache.overall_mshr_miss_latency::total    157016500                       # number of overall MSHR miss cycles
system.cpu.icache.demand_mshr_miss_rate::.cpu.inst     0.000051                       # mshr miss rate for demand accesses
system.cpu.icache.demand_mshr_miss_rate::total     0.000051                       # mshr miss rate for demand accesses
system.cpu.icache.overall_mshr_miss_rate::.cpu.inst     0.000051                       # mshr miss rate for overall accesses
system.cpu.icache.overall_mshr_miss_rate::total     0.000051                       # mshr miss rate for overall accesses
system.cpu.icache.demand_avg_mshr_miss_latency::.cpu.inst 78351.546906                       # average overall mshr miss latency
system.cpu.icache.demand_avg_mshr_miss_latency::total 78351.546906                       # average overall mshr miss latency
system.cpu.icache.overall_avg_mshr_miss_latency::.cpu.inst 78351.546906                       # average overall mshr miss latency
system.cpu.icache.overall_avg_mshr_miss_latency::total 78351.546906                       # average overall mshr miss latency
system.cpu.icache.replacements                      0                       # number of replacements
system.cpu.icache.ReadReq_hits::.cpu.inst     39295693                       # number of ReadReq hits
system.cpu.icache.ReadReq_hits::total        39295693                       # number of ReadReq hits
system.cpu.icache.ReadReq_misses::.cpu.inst         2004                       # number of ReadReq misses
system.cpu.icache.ReadReq_misses::total          2004                       # number of ReadReq misses
system.cpu.icache.ReadReq_miss_latency::.cpu.inst    159020500                       # number of ReadReq miss cycles
system.cpu.icache.ReadReq_miss_latency::total    159020500                       # number of ReadReq miss cycles
system.cpu.icache.ReadReq_accesses::.cpu.inst     39297697                       # number of ReadReq accesses(hits+misses)
system.cpu.icache.ReadReq_accesses::total     39297697                       # number of ReadReq accesses(hits+misses)
system.cpu.icache.ReadReq_miss_rate::.cpu.inst     0.000051                       # miss rate for ReadReq accesses
system.cpu.icache.ReadReq_miss_rate::total     0.000051                       # miss rate for ReadReq accesses
system.cpu.icache.ReadReq_avg_miss_latency::.cpu.inst 79351.546906                       # average ReadReq miss latency
system.cpu.icache.ReadReq_avg_miss_latency::total 79351.546906                       # average ReadReq miss latency
system.cpu.icache.ReadReq_mshr_misses::.cpu.inst         2004                       # number of ReadReq MSHR misses
system.cpu.icache.ReadReq_mshr_misses::total         2004                       # number of ReadReq MSHR misses
system.cpu.icache.ReadReq_mshr_miss_latency::.cpu.inst    157016500                       # number of ReadReq MSHR miss cycles
system.cpu.icache.ReadReq_mshr_miss_latency::total    157016500                       # number of ReadReq MSHR miss cycles
system.cpu.icache.ReadReq_mshr_miss_rate::.cpu.inst     0.000051                       # mshr miss rate for ReadReq accesses
system.cpu.icache.ReadReq_mshr_miss_rate::total     0.000051                       # mshr miss rate for ReadReq accesses
system.cpu.icache.ReadReq_avg_mshr_miss_latency::.cpu.inst 78351.546906                       # average ReadReq mshr miss latency
system.cpu.icache.ReadReq_avg_mshr_miss_latency::total 78351.546906                       # average ReadReq mshr miss latency
system.cpu.icache.power_state.pwrStateResidencyTicks::UNDEFINED  55099783500                       # Cumulative time (in ticks) in various power states
system.cpu.icache.tags.tagsinuse          1696.075638                       # Cycle average of tags in use
system.cpu.icache.tags.total_refs            39297697                       # Total number of references to valid blocks.
system.cpu.icache.tags.sampled_refs              2004                       # Sample count of references to valid blocks.
system.cpu.icache.tags.avg_refs          19609.629242                       # Average number of references to valid blocks.
system.cpu.icache.tags.warmup_cycle             87500                       # Cycle when the warmup percentage was hit.
system.cpu.icache.tags.occ_blocks::.cpu.inst  1696.075638                       # Average occupied blocks per requestor
system.cpu.icache.tags.occ_percent::.cpu.inst     0.414081                       # Average percentage of cache occupancy
system.cpu.icache.tags.occ_percent::total     0.414081                       # Average percentage of cache occupancy
system.cpu.icache.tags.occ_task_id_blocks::1024         2004                       # Occupied blocks per task id
system.cpu.icache.tags.age_task_id_blocks_1024::0           46                       # Occupied blocks per task id
system.cpu.icache.tags.age_task_id_blocks_1024::1           57                       # Occupied blocks per task id
system.cpu.icache.tags.age_task_id_blocks_1024::2          117                       # Occupied blocks per task id
system.cpu.icache.tags.age_task_id_blocks_1024::4         1784                       # Occupied blocks per task id
system.cpu.icache.tags.occ_task_id_percent::1024     0.489258                       # Percentage of cache occupancy per task id
system.cpu.icache.tags.tag_accesses        2515054612                       # Number of tag accesses
system.cpu.icache.tags.data_accesses       2515054612                       # Number of data accesses
system.cpu.icache.tags.power_state.pwrStateResidencyTicks::UNDEFINED  55099783500                       # Cumulative time (in ticks) in various power states
system.cpu.interrupts.clk_domain.clock           8000                       # Clock period in ticks
system.cpu.itb.rdAccesses                           0                       # TLB accesses on read requests
system.cpu.itb.wrAccesses                    39297824                       # TLB accesses on write requests
system.cpu.itb.rdMisses                             0                       # TLB misses on read requests
system.cpu.itb.wrMisses                           433                       # TLB misses on write requests
system.cpu.itb.walker.power_state.pwrStateResidencyTicks::UNDEFINED  55099783500                       # Cumulative time (in ticks) in various power states
system.cpu.itb_walker_cache.blocked_cycles::no_mshrs            0                       # number of cycles access was blocked
system.cpu.itb_walker_cache.blocked_cycles::no_targets            0                       # number of cycles access was blocked
system.cpu.itb_walker_cache.blocked::no_mshrs            0                       # number of cycles access was blocked
system.cpu.itb_walker_cache.blocked::no_targets            0                       # number of cycles access was blocked
system.cpu.itb_walker_cache.avg_blocked_cycles::no_mshrs          nan                       # average number of cycles each access was blocked
system.cpu.itb_walker_cache.avg_blocked_cycles::no_targets          nan                       # average number of cycles each access was blocked
system.cpu.itb_walker_cache.replacements            0                       # number of replacements
system.cpu.itb_walker_cache.power_state.pwrStateResidencyTicks::UNDEFINED  55099783500                       # Cumulative time (in ticks) in various power states
system.cpu.itb_walker_cache.tags.tagsinuse            0                       # Cycle average of tags in use
system.cpu.itb_walker_cache.tags.total_refs            0                       # Total number of references to valid blocks.
system.cpu.itb_walker_cache.tags.sampled_refs            0                       # Sample count of references to valid blocks.
system.cpu.itb_walker_cache.tags.avg_refs          nan                       # Average number of references to valid blocks.
system.cpu.itb_walker_cache.tags.warmup_cycle            0                       # Cycle when the warmup percentage was hit.
system.cpu.itb_walker_cache.tags.tag_accesses            0                       # Number of tag accesses
system.cpu.itb_walker_cache.tags.data_accesses            0                       # Number of data accesses
system.cpu.itb_walker_cache.tags.power_state.pwrStateResidencyTicks::UNDEFINED  55099783500                       # Cumulative time (in ticks) in various power states
system.cpu.power_state.pwrStateResidencyTicks::ON  55099783500                       # Cumulative time (in ticks) in various power states
system.cpu.thread_0.numInsts                        0                       # Number of Instructions committed
system.cpu.thread_0.numOps                          0                       # Number of Ops committed
system.cpu.thread_0.numMemRefs                      0                       # Number of Memory References
system.cpu_clk_domain.clock                       500                       # Clock period in ticks
system.cpu_voltage_domain.voltage                   1                       # Voltage in Volts
system.l2.demand_hits::.cpu.data                  908                       # number of demand (read+write) hits
system.l2.demand_hits::total                      908                       # number of demand (read+write) hits
system.l2.overall_hits::.cpu.data                 908                       # number of overall hits
system.l2.overall_hits::total                     908                       # number of overall hits
system.l2.demand_misses::.cpu.inst               2004                       # number of demand (read+write) misses
system.l2.demand_misses::.cpu.data              13477                       # number of demand (read+write) misses
system.l2.demand_misses::total                  15481                       # number of demand (read+write) misses
system.l2.overall_misses::.cpu.inst              2004                       # number of overall misses
system.l2.overall_misses::.cpu.data             13477                       # number of overall misses
system.l2.overall_misses::total                 15481                       # number of overall misses
system.l2.demand_miss_latency::.cpu.inst    154008000                       # number of demand (read+write) miss cycles
system.l2.demand_miss_latency::.cpu.data   1070876500                       # number of demand (read+write) miss cycles
system.l2.demand_miss_latency::total       1224884500                       # number of demand (read+write) miss cycles
system.l2.overall_miss_latency::.cpu.inst    154008000                       # number of overall miss cycles
system.l2.overall_miss_latency::.cpu.data   1070876500                       # number of overall miss cycles
system.l2.overall_miss_latency::total      1224884500                       # number of overall miss cycles
system.l2.demand_accesses::.cpu.inst             2004                       # number of demand (read+write) accesses
system.l2.demand_accesses::.cpu.data            14385                       # number of demand (read+write) accesses
system.l2.demand_accesses::total                16389                       # number of demand (read+write) accesses
system.l2.overall_accesses::.cpu.inst            2004                       # number of overall (read+write) accesses
system.l2.overall_accesses::.cpu.data           14385                       # number of overall (read+write) accesses
system.l2.overall_accesses::total               16389                       # number of overall (read+write) accesses
system.l2.demand_miss_rate::.cpu.inst               1                       # miss rate for demand accesses
system.l2.demand_miss_rate::.cpu.data        0.936879                       # miss rate for demand accesses
system.l2.demand_miss_rate::total            0.944597                       # miss rate for demand accesses
system.l2.overall_miss_rate::.cpu.inst              1                       # miss rate for overall accesses
system.l2.overall_miss_rate::.cpu.data       0.936879                       # miss rate for overall accesses
system.l2.overall_miss_rate::total           0.944597                       # miss rate for overall accesses
system.l2.demand_avg_miss_latency::.cpu.inst 76850.299401                       # average overall miss latency
system.l2.demand_avg_miss_latency::.cpu.data 79459.560733                       # average overall miss latency
system.l2.demand_avg_miss_latency::total 79121.794458                       # average overall miss latency
system.l2.overall_avg_miss_latency::.cpu.inst 76850.299401                       # average overall miss latency
system.l2.overall_avg_miss_latency::.cpu.data 79459.560733                       # average overall miss latency
system.l2.overall_avg_miss_latency::total 79121.794458                       # average overall miss latency
system.l2.blocked_cycles::no_mshrs                  0                       # number of cycles access was blocked
system.l2.blocked_cycles::no_targets                0                       # number of cycles access was blocked
system.l2.blocked::no_mshrs                         0                       # number of cycles access was blocked
system.l2.blocked::no_targets                       0                       # number of cycles access was blocked
system.l2.avg_blocked_cycles::no_mshrs            nan                       # average number of cycles each access was blocked
system.l2.avg_blocked_cycles::no_targets          nan                       # average number of cycles each access was blocked
system.l2.writebacks::.writebacks                 713                       # number of writebacks
system.l2.writebacks::total                       713                       # number of writebacks
system.l2.demand_mshr_misses::.cpu.inst          2004                       # number of demand (read+write) MSHR misses
system.l2.demand_mshr_misses::.cpu.data         13477                       # number of demand (read+write) MSHR misses
system.l2.demand_mshr_misses::total             15481                       # number of demand (read+write) MSHR misses
system.l2.overall_mshr_misses::.cpu.inst         2004                       # number of overall MSHR misses
system.l2.overall_mshr_misses::.cpu.data        13477                       # number of overall MSHR misses
system.l2.overall_mshr_misses::total            15481                       # number of overall MSHR misses
system.l2.demand_mshr_miss_latency::.cpu.inst    133968000                       # number of demand (read+write) MSHR miss cycles
system.l2.demand_mshr_miss_latency::.cpu.data    936106500                       # number of demand (read+write) MSHR miss cycles
system.l2.demand_mshr_miss_latency::total   1070074500                       # number of demand (read+write) MSHR miss cycles
system.l2.overall_mshr_miss_latency::.cpu.inst    133968000                       # number of overall MSHR miss cycles
system.l2.overall_mshr_miss_latency::.cpu.data    936106500                       # number of overall MSHR miss cycles
system.l2.overall_mshr_miss_latency::total   1070074500                       # number of overall MSHR miss cycles
system.l2.demand_mshr_miss_rate::.cpu.inst            1                       # mshr miss rate for demand accesses
system.l2.demand_mshr_miss_rate::.cpu.data     0.936879                       # mshr miss rate for demand accesses
system.l2.demand_mshr_miss_rate::total       0.944597                       # mshr miss rate for demand accesses
system.l2.overall_mshr_miss_rate::.cpu.inst            1                       # mshr miss rate for overall accesses
system.l2.overall_mshr_miss_rate::.cpu.data     0.936879                       # mshr miss rate for overall accesses
system.l2.overall_mshr_miss_rate::total      0.944597                       # mshr miss rate for overall accesses
system.l2.demand_avg_mshr_miss_latency::.cpu.inst 66850.299401                       # average overall mshr miss latency
system.l2.demand_avg_mshr_miss_latency::.cpu.data 69459.560733                       # average overall mshr miss latency
system.l2.demand_avg_mshr_miss_latency::total 69121.794458                       # average overall mshr miss latency
system.l2.overall_avg_mshr_miss_latency::.cpu.inst 66850.299401                       # average overall mshr miss latency
system.l2.overall_avg_mshr_miss_latency::.cpu.data 69459.560733                       # average overall mshr miss latency
system.l2.overall_avg_mshr_miss_latency::total 69121.794458                       # average overall mshr miss latency
system.l2.replacements                           3690                       # number of replacements
system.l2.WritebackDirty_hits::.writebacks         1975                       # number of WritebackDirty hits
system.l2.WritebackDirty_hits::total             1975                       # number of WritebackDirty hits
system.l2.WritebackDirty_accesses::.writebacks         1975                       # number of WritebackDirty accesses(hits+misses)
system.l2.WritebackDirty_accesses::total         1975                       # number of WritebackDirty accesses(hits+misses)
system.l2.CleanEvict_mshr_misses::.writebacks          345                       # number of CleanEvict MSHR misses
system.l2.CleanEvict_mshr_misses::total           345                       # number of CleanEvict MSHR misses
system.l2.CleanEvict_mshr_miss_rate::.writebacks          inf                       # mshr miss rate for CleanEvict accesses
system.l2.CleanEvict_mshr_miss_rate::total          inf                       # mshr miss rate for CleanEvict accesses
system.l2.ReadExReq_hits::.cpu.data                78                       # number of ReadExReq hits
system.l2.ReadExReq_hits::total                    78                       # number of ReadExReq hits
system.l2.ReadExReq_misses::.cpu.data            5137                       # number of ReadExReq misses
system.l2.ReadExReq_misses::total                5137                       # number of ReadExReq misses
system.l2.ReadExReq_miss_latency::.cpu.data    392164000                       # number of ReadExReq miss cycles
system.l2.ReadExReq_miss_latency::total     392164000                       # number of ReadExReq miss cycles
system.l2.ReadExReq_accesses::.cpu.data          5215                       # number of ReadExReq accesses(hits+misses)
system.l2.ReadExReq_accesses::total              5215                       # number of ReadExReq accesses(hits+misses)
system.l2.ReadExReq_miss_rate::.cpu.data     0.985043                       # miss rate for ReadExReq accesses
system.l2.ReadExReq_miss_rate::total         0.985043                       # miss rate for ReadExReq accesses
system.l2.ReadExReq_avg_miss_latency::.cpu.data 76341.055091                       # average ReadExReq miss latency
system.l2.ReadExReq_avg_miss_latency::total 76341.055091                       # average ReadExReq miss latency
system.l2.ReadExReq_mshr_misses::.cpu.data         5137                       # number of ReadExReq MSHR misses
system.l2.ReadExReq_mshr_misses::total           5137                       # number of ReadExReq MSHR misses
system.l2.ReadExReq_mshr_miss_latency::.cpu.data    340794000                       # number of ReadExReq MSHR miss cycles
system.l2.ReadExReq_mshr_miss_latency::total    340794000                       # number of ReadExReq MSHR miss cycles
system.l2.ReadExReq_mshr_miss_rate::.cpu.data     0.985043                       # mshr miss rate for ReadExReq accesses
system.l2.ReadExReq_mshr_miss_rate::total     0.985043                       # mshr miss rate for ReadExReq accesses
system.l2.ReadExReq_avg_mshr_miss_latency::.cpu.data 66341.055091                       # average ReadExReq mshr miss latency
system.l2.ReadExReq_avg_mshr_miss_latency::total 66341.055091                       # average ReadExReq mshr miss latency
system.l2.ReadCleanReq_misses::.cpu.inst         2004                       # number of ReadCleanReq misses
system.l2.ReadCleanReq_misses::total             2004                       # number of ReadCleanReq misses
system.l2.ReadCleanReq_miss_latency::.cpu.inst    154008000                       # number of ReadCleanReq miss cycles
system.l2.ReadCleanReq_miss_latency::total    154008000                       # number of ReadCleanReq miss cycles
system.l2.ReadCleanReq_accesses::.cpu.inst         2004                       # number of ReadCleanReq accesses(hits+misses)
system.l2.ReadCleanReq_accesses::total           2004                       # number of ReadCleanReq accesses(hits+misses)
system.l2.ReadCleanReq_miss_rate::.cpu.inst            1                       # miss rate for ReadCleanReq accesses
system.l2.ReadCleanReq_miss_rate::total             1                       # miss rate for ReadCleanReq accesses
system.l2.ReadCleanReq_avg_miss_latency::.cpu.inst 76850.299401                       # average ReadCleanReq miss latency
system.l2.ReadCleanReq_avg_miss_latency::total 76850.299401                       # average ReadCleanReq miss latency
system.l2.ReadCleanReq_mshr_misses::.cpu.inst         2004                       # number of ReadCleanReq MSHR misses
system.l2.ReadCleanReq_mshr_misses::total         2004                       # number of ReadCleanReq MSHR misses
system.l2.ReadCleanReq_mshr_miss_latency::.cpu.inst    133968000                       # number of ReadCleanReq MSHR miss cycles
system.l2.ReadCleanReq_mshr_miss_latency::total    133968000                       # number of ReadCleanReq MSHR miss cycles
system.l2.ReadCleanReq_mshr_miss_rate::.cpu.inst            1                       # mshr miss rate for ReadCleanReq accesses
system.l2.ReadCleanReq_mshr_miss_rate::total            1                       # mshr miss rate for ReadCleanReq accesses
system.l2.ReadCleanReq_avg_mshr_miss_latency::.cpu.inst 66850.299401                       # average ReadCleanReq mshr miss latency
system.l2.ReadCleanReq_avg_mshr_miss_latency::total 66850.299401                       # average ReadCleanReq mshr miss latency
system.l2.ReadSharedReq_hits::.cpu.data           830                       # number of ReadSharedReq hits
system.l2.ReadSharedReq_hits::total               830                       # number of ReadSharedReq hits
system.l2.ReadSharedReq_misses::.cpu.data         8340                       # number of ReadSharedReq misses
system.l2.ReadSharedReq_misses::total            8340                       # number of ReadSharedReq misses
system.l2.ReadSharedReq_miss_latency::.cpu.data    678712500                       # number of ReadSharedReq miss cycles
system.l2.ReadSharedReq_miss_latency::total    678712500                       # number of ReadSharedReq miss cycles
system.l2.ReadSharedReq_accesses::.cpu.data         9170                       # number of ReadSharedReq accesses(hits+misses)
system.l2.ReadSharedReq_accesses::total          9170                       # number of ReadSharedReq accesses(hits+misses)
system.l2.ReadSharedReq_miss_rate::.cpu.data     0.909487                       # miss rate for ReadSharedReq accesses
system.l2.ReadSharedReq_miss_rate::total     0.909487                       # miss rate for ReadSharedReq accesses
system.l2.ReadSharedReq_avg_miss_latency::.cpu.data 81380.395683                       # average ReadSharedReq miss latency
system.l2.ReadSharedReq_avg_miss_latency::total 81380.395683                       # average ReadSharedReq miss latency
system.l2.ReadSharedReq_mshr_misses::.cpu.data         8340                       # number of ReadSharedReq MSHR misses
system.l2.ReadSharedReq_mshr_misses::total         8340                       # number of ReadSharedReq MSHR misses
system.l2.ReadSharedReq_mshr_miss_latency::.cpu.data    595312500                       # number of ReadSharedReq MSHR miss cycles
system.l2.ReadSharedReq_mshr_miss_latency::total    595312500                       # number of ReadSharedReq MSHR miss cycles
system.l2.ReadSharedReq_mshr_miss_rate::.cpu.data     0.909487                       # mshr miss rate for ReadSharedReq accesses
system.l2.ReadSharedReq_mshr_miss_rate::total     0.909487                       # mshr miss rate for ReadSharedReq accesses
system.l2.ReadSharedReq_avg_mshr_miss_latency::.cpu.data 71380.395683                       # average ReadSharedReq mshr miss latency
system.l2.ReadSharedReq_avg_mshr_miss_latency::total 71380.395683                       # average ReadSharedReq mshr miss latency
system.l2.power_state.pwrStateResidencyTicks::UNDEFINED  55099783500                       # Cumulative time (in ticks) in various power states
system.l2.tags.tagsinuse                 10946.209089                       # Cycle average of tags in use
system.l2.tags.total_refs                       26333                       # Total number of references to valid blocks.
system.l2.tags.sampled_refs                     15625                       # Sample count of references to valid blocks.
system.l2.tags.avg_refs                      1.685312                       # Average number of references to valid blocks.
system.l2.tags.warmup_cycle                     77000                       # Cycle when the warmup percentage was hit.
system.l2.tags.occ_blocks::.writebacks      32.063573                       # Average occupied blocks per requestor
system.l2.tags.occ_blocks::.cpu.inst      1397.011617                       # Average occupied blocks per requestor
system.l2.tags.occ_blocks::.cpu.data      9517.133899                       # Average occupied blocks per requestor
system.l2.tags.occ_percent::.writebacks      0.001957                       # Average percentage of cache occupancy
system.l2.tags.occ_percent::.cpu.inst        0.085267                       # Average percentage of cache occupancy
system.l2.tags.occ_percent::.cpu.data        0.580880                       # Average percentage of cache occupancy
system.l2.tags.occ_percent::total            0.668104                       # Average percentage of cache occupancy
system.l2.tags.occ_task_id_blocks::1024         11935                       # Occupied blocks per task id
system.l2.tags.age_task_id_blocks_1024::0           58                       # Occupied blocks per task id
system.l2.tags.age_task_id_blocks_1024::1           91                       # Occupied blocks per task id
system.l2.tags.age_task_id_blocks_1024::2          160                       # Occupied blocks per task id
system.l2.tags.age_task_id_blocks_1024::3          441                       # Occupied blocks per task id
system.l2.tags.age_task_id_blocks_1024::4        11185                       # Occupied blocks per task id
system.l2.tags.occ_task_id_percent::1024     0.728455                       # Percentage of cache occupancy per task id
system.l2.tags.tag_accesses                     42303                       # Number of tag accesses
system.l2.tags.data_accesses                    42303                       # Number of data accesses
system.l2.tags.power_state.pwrStateResidencyTicks::UNDEFINED  55099783500                       # Cumulative time (in ticks) in various power states
system.mem_ctrls.avgPriority_.writebacks::samples       713.00                       # Average QoS priority value for accepted requests
system.mem_ctrls.avgPriority_.cpu.inst::samples      2004.00                       # Average QoS priority value for accepted requests
system.mem_ctrls.avgPriority_.cpu.data::samples     13468.00                       # Average QoS priority value for accepted requests
system.mem_ctrls.priorityMinLatency      0.000000018750                       # per QoS priority minimum request to response latency (s)
system.mem_ctrls.priorityMaxLatency      0.060249648500                       # per QoS priority maximum request to response latency (s)
system.mem_ctrls.numReadWriteTurnArounds           41                       # Number of turnarounds from READ to WRITE
system.mem_ctrls.numWriteReadTurnArounds           41                       # Number of turnarounds from WRITE to READ
system.mem_ctrls.numStayReadState               45784                       # Number of times bus staying in READ state
system.mem_ctrls.numStayWriteState                653                       # Number of times bus staying in WRITE state
system.mem_ctrls.readReqs                       15481                       # Number of read requests accepted
system.mem_ctrls.writeReqs                        713                       # Number of write requests accepted
system.mem_ctrls.readBursts                     15481                       # Number of controller read bursts, including those serviced by the write queue
system.mem_ctrls.writeBursts                      713                       # Number of controller write bursts, including those merged in the write queue
system.mem_ctrls.servicedByWrQ                      9                       # Number of controller read bursts serviced by the write queue
system.mem_ctrls.mergedWrBursts                     0                       # Number of controller write bursts merged with an existing one
system.mem_ctrls.neitherReadNorWriteReqs            0                       # Number of requests that are neither read nor write
system.mem_ctrls.avgRdQLen                       1.00                       # Average read queue length when enqueuing
system.mem_ctrls.avgWrQLen                      22.42                       # Average write queue length when enqueuing
system.mem_ctrls.numRdRetry                         0                       # Number of times read queue was full causing retry
system.mem_ctrls.numWrRetry                         0                       # Number of times write queue was full causing retry
system.mem_ctrls.readPktSize::0                     0                       # Read request sizes (log2)
system.mem_ctrls.readPktSize::1                     0                       # Read request sizes (log2)
system.mem_ctrls.readPktSize::2                     0                       # Read request sizes (log2)
system.mem_ctrls.readPktSize::3                     0                       # Read request sizes (log2)
system.mem_ctrls.readPktSize::4                     0                       # Read request sizes (log2)
system.mem_ctrls.readPktSize::5                     0                       # Read request sizes (log2)
system.mem_ctrls.readPktSize::6                 15481                       # Read request sizes (log2)
system.mem_ctrls.writePktSize::0                    0                       # Write request sizes (log2)
system.mem_ctrls.writePktSize::1                    0                       # Write request sizes (log2)
system.mem_ctrls.writePktSize::2                    0                       # Write request sizes (log2)
system.mem_ctrls.writePktSize::3                    0                       # Write request sizes (log2)
system.mem_ctrls.writePktSize::4                    0                       # Write request sizes (log2)
system.mem_ctrls.writePktSize::5                    0                       # Write request sizes (log2)
system.mem_ctrls.writePktSize::6                  713                       # Write request sizes (log2)
system.mem_ctrls.rdQLenPdf::0                   15472                       # What read queue length does an incoming req see
system.mem_ctrls.rdQLenPdf::1                       0                       # What read queue length does an incoming req see
system.mem_ctrls.rdQLenPdf::2                       0                       # What read queue length does an incoming req see
system.mem_ctrls.rdQLenPdf::3                       0                       # What read queue length does an incoming req see
system.mem_ctrls.rdQLenPdf::4                       0                       # What read queue length does an incoming req see
system.mem_ctrls.rdQLenPdf::5                       0                       # What read queue length does an incoming req see
system.mem_ctrls.rdQLenPdf::6                       0                       # What read queue length does an incoming req see
system.mem_ctrls.rdQLenPdf::7                       0                       # What read queue length does an incoming req see
system.mem_ctrls.rdQLenPdf::8                       0                       # What read queue length does an incoming req see
system.mem_ctrls.rdQLenPdf::9                       0                       # What read queue length does an incoming req see
system.mem_ctrls.rdQLenPdf::10                      0                       # What read queue length does an incoming req see
system.mem_ctrls.rdQLenPdf::11                      0                       # What read queue length does an incoming req see
system.mem_ctrls.rdQLenPdf::12                      0                       # What read queue length does an incoming req see
system.mem_ctrls.rdQLenPdf::13                      0                       # What read queue length does an incoming req see
system.mem_ctrls.rdQLenPdf::14                      0                       # What read queue length does an incoming req see
system.mem_ctrls.rdQLenPdf::15                      0                       # What read queue length does an incoming req see
system.mem_ctrls.rdQLenPdf::16                      0                       # What read queue length does an incoming req see
system.mem_ctrls.rdQLenPdf::17                      0                       # What read queue length does an incoming req see
system.mem_ctrls.rdQLenPdf::18                      0                       # What read queue length does an incoming req see
system.mem_ctrls.rdQLenPdf::19                      0                       # What read queue length does an incoming req see
system.mem_ctrls.rdQLenPdf::20                      0                       # What read queue length does an incoming req see
system.mem_ctrls.rdQLenPdf::21                      0                       # What read queue length does an incoming req see
system.mem_ctrls.rdQLenPdf::22                      0                       # What read queue length does an incoming req see
system.mem_ctrls.rdQLenPdf::23                      0                       # What read queue length does an incoming req see
system.mem_ctrls.rdQLenPdf::24                      0                       # What read queue length does an incoming req see
system.mem_ctrls.rdQLenPdf::25                      0                       # What read queue length does an incoming req see
system.mem_ctrls.rdQLenPdf::26                      0                       # What read queue length does an incoming req see
system.mem_ctrls.rdQLenPdf::27                      0                       # What read queue length does an incoming req see
system.mem_ctrls.rdQLenPdf::28                      0                       # What read queue length does an incoming req see
system.mem_ctrls.rdQLenPdf::29                      0                       # What read queue length does an incoming req see
system.mem_ctrls.rdQLenPdf::30                      0                       # What read queue length does an incoming req see
system.mem_ctrls.rdQLenPdf::31                      0                       # What read queue length does an incoming req see
system.mem_ctrls.wrQLenPdf::0                       1                       # What write queue length does an incoming req see
system.mem_ctrls.wrQLenPdf::1                       1                       # What write queue length does an incoming req see
system.mem_ctrls.wrQLenPdf::2                       1                       # What write queue length does an incoming req see
system.mem_ctrls.wrQLenPdf::3                       1                       # What write queue length does an incoming req see
system.mem_ctrls.wrQLenPdf::4                       1                       # What write queue length does an incoming req see
system.mem_ctrls.wrQLenPdf::5                       1                       # What write queue length does an incoming req see
system.mem_ctrls.wrQLenPdf::6                       1                       # What write queue length does an incoming req see
system.mem_ctrls.wrQLenPdf::7                       1                       # What write queue length does an incoming req see
system.mem_ctrls.wrQLenPdf::8                       1                       # What write queue length does an incoming req see
system.mem_ctrls.wrQLenPdf::9                       1                       # What write queue length does an incoming req see
system.mem_ctrls.wrQLenPdf::10                      1                       # What write queue length does an incoming req see
system.mem_ctrls.wrQLenPdf::11                      1                       # What write queue length does an incoming req see
system.mem_ctrls.wrQLenPdf::12                      1                       # What write queue length does an incoming req see
system.mem_ctrls.wrQLenPdf::13                      1                       # What write queue length does an incoming req see
system.mem_ctrls.wrQLenPdf::14                      1                       # What write queue length does an incoming req see
system.mem_ctrls.wrQLenPdf::15                     19                       # What write queue length does an incoming req see
system.mem_ctrls.wrQLenPdf::16                     19                       # What write queue length does an incoming req see
system.mem_ctrls.wrQLenPdf::17                     42                       # What write queue length does an incoming req see
system.mem_ctrls.wrQLenPdf::18                     42                       # What write queue length does an incoming req see
system.mem_ctrls.wrQLenPdf::19                     42                       # What write queue length does an incoming req see
system.mem_ctrls.wrQLenPdf::20                     42                       # What write queue length does an incoming req see
system.mem_ctrls.wrQLenPdf::21                     41                       # What write queue length does an incoming req see
system.mem_ctrls.wrQLenPdf::22                     41                       # What write queue length does an incoming req see
system.mem_ctrls.wrQLenPdf::23                     41                       # What write queue length does an incoming req see
system.mem_ctrls.wrQLenPdf::24                     41                       # What write queue length does an incoming req see
system.mem_ctrls.wrQLenPdf::25                     41                       # What write queue length does an incoming req see
system.mem_ctrls.wrQLenPdf::26                     41                       # What write queue length does an incoming req see
system.mem_ctrls.wrQLenPdf::27                     41                       # What write queue length does an incoming req see
system.mem_ctrls.wrQLenPdf::28                     41                       # What write queue length does an incoming req see
system.mem_ctrls.wrQLenPdf::29                     41                       # What write queue length does an incoming req see
system.mem_ctrls.wrQLenPdf::30                     41                       # What write queue length does an incoming req see
system.mem_ctrls.wrQLenPdf::31                     41                       # What write queue length does an incoming req see
system.mem_ctrls.wrQLenPdf::32                     41                       # What write queue length does an incoming req see
system.mem_ctrls.wrQLenPdf::33                      0                       # What write queue length does an incoming req see
system.mem_ctrls.wrQLenPdf::34                      0                       # What write queue length does an incoming req see
system.mem_ctrls.wrQLenPdf::35                      0                       # What write queue length does an incoming req see
system.mem_ctrls.wrQLenPdf::36                      0                       # What write queue length does an incoming req see
system.mem_ctrls.wrQLenPdf::37                      0                       # What write queue length does an incoming req see
system.mem_ctrls.wrQLenPdf::38                      0                       # What write queue length does an incoming req see
system.mem_ctrls.wrQLenPdf::39                      0                       # What write queue length does an incoming req see
system.mem_ctrls.wrQLenPdf::40                      0                       # What write queue length does an incoming req see
system.mem_ctrls.wrQLenPdf::41                      0                       # What write queue length does an incoming req see
system.mem_ctrls.wrQLenPdf::42                      0                       # What write queue length does an incoming req see
system.mem_ctrls.wrQLenPdf::43                      0                       # What write queue length does an incoming req see
system.mem_ctrls.wrQLenPdf::44                      0                       # What write queue length does an incoming req see
system.mem_ctrls.wrQLenPdf::45                      0                       # What write queue length does an incoming req see
system.mem_ctrls.wrQLenPdf::46                      0                       # What write queue length does an incoming req see
system.mem_ctrls.wrQLenPdf::47                      0                       # What write queue length does an incoming req see
system.mem_ctrls.wrQLenPdf::48                      0                       # What write queue length does an incoming req see
system.mem_ctrls.wrQLenPdf::49                      0                       # What write queue length does an incoming req see
system.mem_ctrls.wrQLenPdf::50                      0                       # What write queue length does an incoming req see
system.mem_ctrls.wrQLenPdf::51                      0                       # What write queue length does an incoming req see
system.mem_ctrls.wrQLenPdf::52                      0                       # What write queue length does an incoming req see
system.mem_ctrls.wrQLenPdf::53                      0                       # What write queue length does an incoming req see
system.mem_ctrls.wrQLenPdf::54                      0                       # What write queue length does an incoming req see
system.mem_ctrls.wrQLenPdf::55                      0                       # What write queue length does an incoming req see
system.mem_ctrls.wrQLenPdf::56                      0                       # What write queue length does an incoming req see
system.mem_ctrls.wrQLenPdf::57                      0                       # What write queue length does an incoming req see
system.mem_ctrls.wrQLenPdf::58                      0                       # What write queue length does an incoming req see
system.mem_ctrls.wrQLenPdf::59                      0                       # What write queue length does an incoming req see
system.mem_ctrls.wrQLenPdf::60                      0                       # What write queue length does an incoming req see
system.mem_ctrls.wrQLenPdf::61                      0                       # What write queue length does an incoming req see
system.mem_ctrls.wrQLenPdf::62                      0                       # What write queue length does an incoming req see
system.mem_ctrls.wrQLenPdf::63                      0                       # What write queue length does an incoming req see
system.mem_ctrls.rdPerTurnAround::samples           41                       # Reads before turning the bus around for writes
system.mem_ctrls.rdPerTurnAround::mean     376.121951                       # Reads before turning the bus around for writes
system.mem_ctrls.rdPerTurnAround::gmean     49.872719                       # Reads before turning the bus around for writes
system.mem_ctrls.rdPerTurnAround::stdev   1638.504535                       # Reads before turning the bus around for writes
system.mem_ctrls.rdPerTurnAround::0-511            38     92.68%     92.68% # Reads before turning the bus around for writes
system.mem_ctrls.rdPerTurnAround::1024-1535            1      2.44%     95.12% # Reads before turning the bus around for writes
system.mem_ctrls.rdPerTurnAround::1536-2047            1      2.44%     97.56% # Reads before turning the bus around for writes
system.mem_ctrls.rdPerTurnAround::10240-10751            1      2.44%    100.00% # Reads before turning the bus around for writes
system.mem_ctrls.rdPerTurnAround::total            41                       # Reads before turning the bus around for writes
system.mem_ctrls.wrPerTurnAround::samples           41                       # Writes before turning the bus around for reads
system.mem_ctrls.wrPerTurnAround::mean      16.878049                       # Writes before turning the bus around for reads
system.mem_ctrls.wrPerTurnAround::gmean     16.849119                       # Writes before turning the bus around for reads
system.mem_ctrls.wrPerTurnAround::stdev      1.004866                       # Writes before turning the bus around for reads
system.mem_ctrls.wrPerTurnAround::16               23     56.10%     56.10% # Writes before turning the bus around for reads
system.mem_ctrls.wrPerTurnAround::18               18     43.90%    100.00% # Writes before turning the bus around for reads
system.mem_ctrls.wrPerTurnAround::total            41                       # Writes before turning the bus around for reads
system.mem_ctrls.bytesReadWrQ                     576                       # Total number of bytes read from write queue
system.mem_ctrls.bytesReadSys                  990784                       # Total read bytes from the system interface side
system.mem_ctrls.bytesWrittenSys                45632                       # Total written bytes from the system interface side
system.mem_ctrls.avgRdBWSys                     17.98                       # Average system read bandwidth in MiByte/s
system.mem_ctrls.avgWrBWSys                      0.83                       # Average system write bandwidth in MiByte/s
system.mem_ctrls.totGap                   55099709500                       # Total gap between requests
system.mem_ctrls.avgGap                    3402476.81                       # Average gap between requests
system.mem_ctrls.requestorReadBytes::.cpu.inst       128256                       # Per-requestor bytes read from memory
system.mem_ctrls.requestorReadBytes::.cpu.data       861952                       # Per-requestor bytes read from memory
system.mem_ctrls.requestorWriteBytes::.writebacks        44288                       # Per-requestor bytes write to memory
system.mem_ctrls.requestorReadRate::.cpu.inst 2327704.245879659429                       # Per-requestor bytes read from memory rate (Bytes/sec)
system.mem_ctrls.requestorReadRate::.cpu.data 15643473.444863898680                       # Per-requestor bytes read from memory rate (Bytes/sec)
system.mem_ctrls.requestorWriteRate::.writebacks 803778.112848664867                       # Per-requestor bytes write to memory rate (Bytes/sec)
system.mem_ctrls.requestorReadAccesses::.cpu.inst         2004                       # Per-requestor read serviced memory accesses
system.mem_ctrls.requestorReadAccesses::.cpu.data        13477                       # Per-requestor read serviced memory accesses
system.mem_ctrls.requestorWriteAccesses::.writebacks          713                       # Per-requestor write serviced memory accesses
system.mem_ctrls.requestorReadTotalLat::.cpu.inst     52155000                       # Per-requestor read total memory access latency
[...]
system.mem_ctrls.dram.bw_total::.cpu.data     15653927                       # Total bandwidth to/from this memory (bytes/s)
system.mem_ctrls.dram.bw_total::total        18809802                       # Total bandwidth to/from this memory (bytes/s)
system.mem_ctrls.dram.readBursts                15472                       # Number of DRAM read bursts
system.mem_ctrls.dram.writeBursts                 692                       # Number of DRAM write bursts
system.mem_ctrls.dram.perBankRdBursts::0         1316                       # Per bank write bursts
system.mem_ctrls.dram.perBankRdBursts::1         1025                       # Per bank write bursts
system.mem_ctrls.dram.perBankRdBursts::2         1032                       # Per bank write bursts
system.mem_ctrls.dram.perBankRdBursts::3          883                       # Per bank write bursts
system.mem_ctrls.dram.perBankRdBursts::4         1155                       # Per bank write bursts
system.mem_ctrls.dram.perBankRdBursts::5          957                       # Per bank write bursts
system.mem_ctrls.dram.perBankRdBursts::6         1098                       # Per bank write bursts
system.mem_ctrls.dram.perBankRdBursts::7          894                       # Per bank write bursts
system.mem_ctrls.dram.perBankRdBursts::8          769                       # Per bank write bursts
system.mem_ctrls.dram.perBankRdBursts::9          752                       # Per bank write bursts
system.mem_ctrls.dram.perBankRdBursts::10          772                       # Per bank write bursts
system.mem_ctrls.dram.perBankRdBursts::11          975                       # Per bank write bursts
system.mem_ctrls.dram.perBankRdBursts::12          872                       # Per bank write bursts
system.mem_ctrls.dram.perBankRdBursts::13          969                       # Per bank write bursts
system.mem_ctrls.dram.perBankRdBursts::14          925                       # Per bank write bursts
system.mem_ctrls.dram.perBankRdBursts::15         1078                       # Per bank write bursts
system.mem_ctrls.dram.perBankWrBursts::0           94                       # Per bank write bursts
system.mem_ctrls.dram.perBankWrBursts::1           61                       # Per bank write bursts
system.mem_ctrls.dram.perBankWrBursts::2          125                       # Per bank write bursts
system.mem_ctrls.dram.perBankWrBursts::3           65                       # Per bank write bursts
system.mem_ctrls.dram.perBankWrBursts::4          152                       # Per bank write bursts
system.mem_ctrls.dram.perBankWrBursts::5          103                       # Per bank write bursts
system.mem_ctrls.dram.perBankWrBursts::6           11                       # Per bank write bursts
system.mem_ctrls.dram.perBankWrBursts::7            4                       # Per bank write bursts
system.mem_ctrls.dram.perBankWrBursts::8            0                       # Per bank write bursts
system.mem_ctrls.dram.perBankWrBursts::9            0                       # Per bank write bursts
system.mem_ctrls.dram.perBankWrBursts::10            3                       # Per bank write bursts
system.mem_ctrls.dram.perBankWrBursts::11           23                       # Per bank write bursts
system.mem_ctrls.dram.perBankWrBursts::12            8                       # Per bank write bursts
system.mem_ctrls.dram.perBankWrBursts::13            5                       # Per bank write bursts
system.mem_ctrls.dram.perBankWrBursts::14            3                       # Per bank write bursts
system.mem_ctrls.dram.perBankWrBursts::15           35                       # Per bank write bursts
system.mem_ctrls.dram.totQLat               147708500                       # Total ticks spent queuing
system.mem_ctrls.dram.totBusLat              77360000                       # Total ticks spent in databus transfers
system.mem_ctrls.dram.totMemAccLat          437808500                       # Total ticks spent from burst creation until serviced by the DRAM
system.mem_ctrls.dram.avgQLat                 9546.83                       # Average queueing delay per DRAM burst
system.mem_ctrls.dram.avgBusLat               5000.00                       # Average bus latency per DRAM burst
system.mem_ctrls.dram.avgMemAccLat           28296.83                       # Average memory access latency per DRAM burst
system.mem_ctrls.dram.readRowHits               10323                       # Number of row buffer hits during reads
system.mem_ctrls.dram.writeRowHits                588                       # Number of row buffer hits during writes
system.mem_ctrls.dram.readRowHitRate            66.72                       # Row buffer hit rate for reads
system.mem_ctrls.dram.writeRowHitRate           84.97                       # Row buffer hit rate for writes
system.mem_ctrls.dram.bytesPerActivate::samples         5243                       # Bytes accessed per row activation
system.mem_ctrls.dram.bytesPerActivate::mean   196.919321                       # Bytes accessed per row activation
system.mem_ctrls.dram.bytesPerActivate::gmean   123.269538                       # Bytes accessed per row activation
system.mem_ctrls.dram.bytesPerActivate::stdev   248.355962                       # Bytes accessed per row activation
system.mem_ctrls.dram.bytesPerActivate::0-127         2763     52.70%     52.70% # Bytes accessed per row activation
system.mem_ctrls.dram.bytesPerActivate::128-255         1363     26.00%     78.70% # Bytes accessed per row activation
system.mem_ctrls.dram.bytesPerActivate::256-383          398      7.59%     86.29% # Bytes accessed per row activation
system.mem_ctrls.dram.bytesPerActivate::384-511          160      3.05%     89.34% # Bytes accessed per row activation
system.mem_ctrls.dram.bytesPerActivate::512-639          104      1.98%     91.32% # Bytes accessed per row activation
system.mem_ctrls.dram.bytesPerActivate::640-767           79      1.51%     92.83% # Bytes accessed per row activation
system.mem_ctrls.dram.bytesPerActivate::768-895           63      1.20%     94.03% # Bytes accessed per row activation
system.mem_ctrls.dram.bytesPerActivate::896-1023           55      1.05%     95.08% # Bytes accessed per row activation
system.mem_ctrls.dram.bytesPerActivate::1024-1151          258      4.92%    100.00% # Bytes accessed per row activation
system.mem_ctrls.dram.bytesPerActivate::total         5243                       # Bytes accessed per row activation
system.mem_ctrls.dram.bytesRead                990208                       # Total number of bytes read from DRAM
system.mem_ctrls.dram.bytesWritten              44288                       # Total number of bytes written to DRAM
system.mem_ctrls.dram.avgRdBW               17.971178                       # Average DRAM read bandwidth in MiBytes/s
system.mem_ctrls.dram.avgWrBW                0.803778                       # Average DRAM write bandwidth in MiBytes/s
system.mem_ctrls.dram.peakBW                 12800.00                       # Theoretical peak bandwidth in MiByte/s
system.mem_ctrls.dram.busUtil                    0.15                       # Data bus utilization in percentage
system.mem_ctrls.dram.busUtilRead                0.14                       # Data bus utilization in percentage for reads
system.mem_ctrls.dram.busUtilWrite               0.01                       # Data bus utilization in percentage for writes
system.mem_ctrls.dram.pageHitRate               67.50                       # Row buffer hit rate, read and write combined
system.mem_ctrls.dram.power_state.pwrStateResidencyTicks::UNDEFINED  55099783500                       # Cumulative time (in ticks) in various power states
system.mem_ctrls.dram.rank0.actEnergy        20199060                       # Energy for activate commands per rank (pJ)
system.mem_ctrls.dram.rank0.preEnergy        10717080                       # Energy for precharge commands per rank (pJ)
system.mem_ctrls.dram.rank0.readEnergy       59690400                       # Energy for read commands per rank (pJ)
system.mem_ctrls.dram.rank0.writeEnergy       3210300                       # Energy for write commands per rank (pJ)
system.mem_ctrls.dram.rank0.refreshEnergy 4349192640.000001                       # Energy for refresh commands per rank (pJ)
system.mem_ctrls.dram.rank0.actBackEnergy   2940522840                       # Energy for active background per rank (pJ)
system.mem_ctrls.dram.rank0.preBackEnergy  18682087200                       # Energy for precharge background per rank (pJ)
system.mem_ctrls.dram.rank0.actPowerDownEnergy            0                       # Energy for active power-down per rank (pJ)
system.mem_ctrls.dram.rank0.prePowerDownEnergy            0                       # Energy for precharge power-down per rank (pJ)
system.mem_ctrls.dram.rank0.selfRefreshEnergy            0                       # Energy for self refresh per rank (pJ)
system.mem_ctrls.dram.rank0.totalEnergy   26065619520                       # Total energy per rank (pJ)
system.mem_ctrls.dram.rank0.averagePower   473.062104                       # Core power per rank (mW)
system.mem_ctrls.dram.rank0.totalIdleTime            0                       # Total Idle time Per DRAM Rank
system.mem_ctrls.dram.rank0.pwrStateTime::IDLE  48541985750                       # Time in different power states
system.mem_ctrls.dram.rank0.pwrStateTime::REF   1839760000                       # Time in different power states
system.mem_ctrls.dram.rank0.pwrStateTime::SREF            0                       # Time in different power states
system.mem_ctrls.dram.rank0.pwrStateTime::PRE_PDN            0                       # Time in different power states
system.mem_ctrls.dram.rank0.pwrStateTime::ACT   4718037750                       # Time in different power states
system.mem_ctrls.dram.rank0.pwrStateTime::ACT_PDN            0                       # Time in different power states
system.mem_ctrls.dram.rank1.actEnergy        17307360                       # Energy for activate commands per rank (pJ)
system.mem_ctrls.dram.rank1.preEnergy         9180105                       # Energy for precharge commands per rank (pJ)
system.mem_ctrls.dram.rank1.readEnergy       50779680                       # Energy for read commands per rank (pJ)
system.mem_ctrls.dram.rank1.writeEnergy        401940                       # Energy for write commands per rank (pJ)
system.mem_ctrls.dram.rank1.refreshEnergy 4349192640.000001                       # Energy for refresh commands per rank (pJ)
system.mem_ctrls.dram.rank1.actBackEnergy   2635443450                       # Energy for active background per rank (pJ)
system.mem_ctrls.dram.rank1.preBackEnergy  18938996160                       # Energy for precharge background per rank (pJ)
system.mem_ctrls.dram.rank1.actPowerDownEnergy            0                       # Energy for active power-down per rank (pJ)
system.mem_ctrls.dram.rank1.prePowerDownEnergy            0                       # Energy for precharge power-down per rank (pJ)
system.mem_ctrls.dram.rank1.selfRefreshEnergy            0                       # Energy for self refresh per rank (pJ)
system.mem_ctrls.dram.rank1.totalEnergy   26001301335                       # Total energy per rank (pJ)
system.mem_ctrls.dram.rank1.averagePower   471.894800                       # Core power per rank (mW)
system.mem_ctrls.dram.rank1.totalIdleTime            0                       # Total Idle time Per DRAM Rank
system.mem_ctrls.dram.rank1.pwrStateTime::IDLE  49211147000                       # Time in different power states
system.mem_ctrls.dram.rank1.pwrStateTime::REF   1839760000                       # Time in different power states
system.mem_ctrls.dram.rank1.pwrStateTime::SREF            0                       # Time in different power states
system.mem_ctrls.dram.rank1.pwrStateTime::PRE_PDN            0                       # Time in different power states
system.mem_ctrls.dram.rank1.pwrStateTime::ACT   4048876500                       # Time in different power states
system.mem_ctrls.dram.rank1.pwrStateTime::ACT_PDN            0                       # Time in different power states
system.mem_ctrls.power_state.pwrStateResidencyTicks::UNDEFINED  55099783500                       # Cumulative time (in ticks) in various power states
system.membus.trans_dist::ReadResp              10344                       # Transaction distribution
system.membus.trans_dist::WritebackDirty          713                       # Transaction distribution
system.membus.trans_dist::CleanEvict             2350                       # Transaction distribution
system.membus.trans_dist::ReadExReq              5137                       # Transaction distribution
system.membus.trans_dist::ReadExResp             5137                       # Transaction distribution
system.membus.trans_dist::ReadSharedReq         10344                       # Transaction distribution
system.membus.pkt_count_system.l2.mem_side_port::system.mem_ctrls.port        34025                       # Packet count per connected requestor and responder (bytes)
system.membus.pkt_count_system.l2.mem_side_port::total        34025                       # Packet count per connected requestor and responder (bytes)
system.membus.pkt_count::total                  34025                       # Packet count per connected requestor and responder (bytes)
system.membus.pkt_size_system.l2.mem_side_port::system.mem_ctrls.port      1036416                       # Cumulative packet size per connected requestor and responder (bytes)
system.membus.pkt_size_system.l2.mem_side_port::total      1036416                       # Cumulative packet size per connected requestor and responder (bytes)
system.membus.pkt_size::total                 1036416                       # Cumulative packet size per connected requestor and responder (bytes)
system.membus.snoops                                0                       # Total snoops (count)
system.membus.snoopTraffic                          0                       # Total snoop traffic (bytes)
system.membus.snoop_fanout::samples             15481                       # Request fanout histogram
system.membus.snoop_fanout::mean                    0                       # Request fanout histogram
system.membus.snoop_fanout::stdev                   0                       # Request fanout histogram
system.membus.snoop_fanout::underflows              0      0.00%      0.00% # Request fanout histogram
system.membus.snoop_fanout::0                   15481    100.00%    100.00% # Request fanout histogram
system.membus.snoop_fanout::1                       0      0.00%    100.00% # Request fanout histogram
system.membus.snoop_fanout::overflows               0      0.00%    100.00% # Request fanout histogram
system.membus.snoop_fanout::min_value               0                       # Request fanout histogram
system.membus.snoop_fanout::max_value               0                       # Request fanout histogram
system.membus.snoop_fanout::total               15481                       # Request fanout histogram
system.membus.power_state.pwrStateResidencyTicks::UNDEFINED  55099783500                       # Cumulative time (in ticks) in various power states
system.membus.reqLayer2.occupancy            21405000                       # Layer occupancy (ticks)
system.membus.reqLayer2.utilization               0.0                       # Layer utilization (%)
system.membus.respLayer1.occupancy           82770500                       # Layer occupancy (ticks)
system.membus.respLayer1.utilization              0.2                       # Layer utilization (%)
system.tol2bus.trans_dist::ReadResp             11174                       # Transaction distribution
system.tol2bus.trans_dist::WritebackDirty         2688                       # Transaction distribution
system.tol2bus.trans_dist::CleanEvict           11291                       # Transaction distribution
system.tol2bus.trans_dist::ReadExReq             5215                       # Transaction distribution
system.tol2bus.trans_dist::ReadExResp            5215                       # Transaction distribution
system.tol2bus.trans_dist::ReadCleanReq          2004                       # Transaction distribution
system.tol2bus.trans_dist::ReadSharedReq         9170                       # Transaction distribution
system.tol2bus.pkt_count_system.cpu.icache.mem_side_port::system.l2.cpu_side_port         4008                       # Packet count per connected requestor and responder (bytes)
system.tol2bus.pkt_count_system.cpu.dcache.mem_side_port::system.l2.cpu_side_port        39059                       # Packet count per connected requestor and responder (bytes)
system.tol2bus.pkt_count::total                 43067                       # Packet count per connected requestor and responder (bytes)
system.tol2bus.pkt_size_system.cpu.icache.mem_side_port::system.l2.cpu_side_port       128256                       # Cumulative packet size per connected requestor and responder (bytes)
system.tol2bus.pkt_size_system.cpu.dcache.mem_side_port::system.l2.cpu_side_port      1047040                       # Cumulative packet size per connected requestor and responder (bytes)
system.tol2bus.pkt_size::total                1175296                       # Cumulative packet size per connected requestor and responder (bytes)
system.tol2bus.snoops                            3690                       # Total snoops (count)
system.tol2bus.snoopTraffic                     45632                       # Total snoop traffic (bytes)
system.tol2bus.snoop_fanout::samples            20079                       # Request fanout histogram
system.tol2bus.snoop_fanout::mean            0.048409                       # Request fanout histogram
system.tol2bus.snoop_fanout::stdev           0.214634                       # Request fanout histogram
system.tol2bus.snoop_fanout::underflows             0      0.00%      0.00% # Request fanout histogram
system.tol2bus.snoop_fanout::0                  19107     95.16%     95.16% # Request fanout histogram
system.tol2bus.snoop_fanout::1                    972      4.84%    100.00% # Request fanout histogram
system.tol2bus.snoop_fanout::2                      0      0.00%    100.00% # Request fanout histogram
system.tol2bus.snoop_fanout::3                      0      0.00%    100.00% # Request fanout histogram
system.tol2bus.snoop_fanout::4                      0      0.00%    100.00% # Request fanout histogram
system.tol2bus.snoop_fanout::overflows              0      0.00%    100.00% # Request fanout histogram
system.tol2bus.snoop_fanout::min_value              0                       # Request fanout histogram
system.tol2bus.snoop_fanout::max_value              1                       # Request fanout histogram
system.tol2bus.snoop_fanout::total              20079                       # Request fanout histogram
system.tol2bus.power_state.pwrStateResidencyTicks::UNDEFINED  55099783500                       # Cumulative time (in ticks) in various power states
system.tol2bus.reqLayer0.occupancy           15314000                       # Layer occupancy (ticks)
system.tol2bus.reqLayer0.utilization              0.0                       # Layer utilization (%)
system.tol2bus.respLayer0.occupancy           3006000                       # Layer occupancy (ticks)
system.tol2bus.respLayer0.utilization             0.0                       # Layer utilization (%)
system.tol2bus.respLayer1.occupancy          21577500                       # Layer occupancy (ticks)
system.tol2bus.respLayer1.utilization             0.0                       # Layer utilization (%)
system.voltage_domain.voltage                       1                       # Voltage in Volts

---------- End Simulation Statistics   ----------
