
---------- Begin Simulation Statistics ----------
final_tick                                55090682500                       # Number of ticks from beginning of simulation (restored from checkpoints and never reset)
host_inst_rate                                 646435                       # Simulator instruction rate (inst/s)
host_mem_usage                                 719584                       # Number of bytes of host memory used
host_op_rate                                  1027645                       # Simulator op (including micro ops) rate (op/s)
host_seconds                                    45.13                       # Real time elapsed on the host
host_tick_rate                             1220817199                       # Simulator tick rate (ticks/s)
sim_freq                                 1000000000000                       # Frequency of simulated ticks
sim_insts                                    29170998                       # Number of instructions simulated
sim_ops                                      46373553                       # Number of ops (including micro ops) simulated
sim_seconds                                  0.055091                       # Number of seconds simulated
sim_ticks                                 55090682500                       # Number of ticks simulated
system.cpu.Branches                           2495132                       # Number of branches fetched
system.cpu.committedInsts                    29170998                       # Number of instructions committed
system.cpu.committedOps                      46373553                       # Number of ops (including micro ops) committed
system.cpu.idle_fraction                     0.000000                       # Percentage of idle cycles
system.cpu.not_idle_fraction                 1.000000                       # Percentage of non-idle cycles
system.cpu.numCycles                        110181365                       # number of cpu cycles simulated
system.cpu.numWorkItemsCompleted                    0                       # number of work items this cpu completed
system.cpu.numWorkItemsStarted                      0                       # number of work items this cpu started
system.cpu.num_busy_cycles               110181364.998000                       # Number of busy cycles
system.cpu.num_cc_register_reads              8950376                       # number of times the CC registers were read
system.cpu.num_cc_register_writes            15259866                       # number of times the CC registers were written
system.cpu.num_conditional_control_insts      1393684                       # number of instructions that are conditional controls
system.cpu.num_fp_alu_accesses                9130444                       # Number of float alu accesses
system.cpu.num_fp_insts                       9130444                       # number of float instructions
system.cpu.num_fp_register_reads              9979372                       # number of times the floating registers were read
system.cpu.num_fp_register_writes             8007910                       # number of times the floating registers were written
system.cpu.num_func_calls                      268670                       # number of times a function call or return occured
system.cpu.num_idle_cycles                   0.002000                       # Number of idle cycles
system.cpu.num_int_alu_accesses              40720266                       # Number of integer alu accesses
system.cpu.num_int_insts                     40720266                       # number of integer instructions
system.cpu.num_int_register_reads            89201624                       # number of times the integer registers were read
system.cpu.num_int_register_writes           34379465                       # number of times the integer registers were written
system.cpu.num_load_insts                    12199932                       # Number of load instructions
system.cpu.num_mem_refs                      14543357                       # number of memory refs
system.cpu.num_store_insts                    2343425                       # Number of store instructions
system.cpu.num_vec_alu_accesses                     0                       # Number of vector alu accesses
system.cpu.num_vec_insts                            0                       # number of vector instructions
system.cpu.num_vec_register_reads                   0                       # number of times the vector registers were read
system.cpu.num_vec_register_writes                  0                       # number of times the vector registers were written
system.cpu.op_class::No_OpClass                221829      0.48%      0.48% # Class of executed instruction
system.cpu.op_class::IntAlu                  25303820     54.56%     55.04% # Class of executed instruction
system.cpu.op_class::IntMult                  1092368      2.36%     57.40% # Class of executed instruction
system.cpu.op_class::IntDiv                     35967      0.08%     57.48% # Class of executed instruction
system.cpu.op_class::FloatAdd                 2044676      4.41%     61.89% # Class of executed instruction
system.cpu.op_class::FloatCmp                       0      0.00%     61.89% # Class of executed instruction
system.cpu.op_class::FloatCvt                    1184      0.00%     61.89% # Class of executed instruction
system.cpu.op_class::FloatMult                      0      0.00%     61.89% # Class of executed instruction
system.cpu.op_class::FloatMultAcc                   0      0.00%     61.89% # Class of executed instruction
system.cpu.op_class::FloatDiv                       0      0.00%     61.89% # Class of executed instruction
system.cpu.op_class::FloatMisc                      0      0.00%     61.89% # Class of executed instruction
system.cpu.op_class::FloatSqrt                      0      0.00%     61.89% # Class of executed instruction
system.cpu.op_class::SimdAdd                     6636      0.01%     61.90% # Class of executed instruction
system.cpu.op_class::SimdAddAcc                     0      0.00%     61.90% # Class of executed instruction
system.cpu.op_class::SimdAlu                   618073      1.33%     63.23% # Class of executed instruction
system.cpu.op_class::SimdCmp                        0      0.00%     63.23% # Class of executed instruction
system.cpu.op_class::SimdCvt                    13882      0.03%     63.26% # Class of executed instruction
system.cpu.op_class::SimdMisc                  291058      0.63%     63.89% # Class of executed instruction
system.cpu.op_class::SimdMult                       0      0.00%     63.89% # Class of executed instruction
system.cpu.op_class::SimdMultAcc                    0      0.00%     63.89% # Class of executed instruction
system.cpu.op_class::SimdShift                    401      0.00%     63.89% # Class of executed instruction
system.cpu.op_class::SimdShiftAcc                   0      0.00%     63.89% # Class of executed instruction
system.cpu.op_class::SimdDiv                        0      0.00%     63.89% # Class of executed instruction
system.cpu.op_class::SimdSqrt                       0      0.00%     63.89% # Class of executed instruction
system.cpu.op_class::SimdFloatAdd              945420      2.04%     65.93% # Class of executed instruction
system.cpu.op_class::SimdFloatAlu                   0      0.00%     65.93% # Class of executed instruction
system.cpu.op_class::SimdFloatCmp                   0      0.00%     65.93% # Class of executed instruction
system.cpu.op_class::SimdFloatCvt              142000      0.31%     66.24% # Class of executed instruction
system.cpu.op_class::SimdFloatDiv               28470      0.06%     66.30% # Class of executed instruction
system.cpu.op_class::SimdFloatMisc                  0      0.00%     66.30% # Class of executed instruction
system.cpu.op_class::SimdFloatMult            1084700      2.34%     68.64% # Class of executed instruction
system.cpu.op_class::SimdFloatMultAcc               0      0.00%     68.64% # Class of executed instruction
system.cpu.op_class::SimdFloatSqrt                 90      0.00%     68.64% # Class of executed instruction
system.cpu.op_class::SimdReduceAdd                  0      0.00%     68.64% # Class of executed instruction
system.cpu.op_class::SimdReduceAlu                  0      0.00%     68.64% # Class of executed instruction
system.cpu.op_class::SimdReduceCmp                  0      0.00%     68.64% # Class of executed instruction
system.cpu.op_class::SimdFloatReduceAdd             0      0.00%     68.64% # Class of executed instruction
system.cpu.op_class::SimdFloatReduceCmp             0      0.00%     68.64% # Class of executed instruction
system.cpu.op_class::SimdAes                        0      0.00%     68.64% # Class of executed instruction
system.cpu.op_class::SimdAesMix                     0      0.00%     68.64% # Class of executed instruction
system.cpu.op_class::SimdSha1Hash                   0      0.00%     68.64% # Class of executed instruction
system.cpu.op_class::SimdSha1Hash2                  0      0.00%     68.64% # Class of executed instruction
system.cpu.op_class::SimdSha256Hash                 0      0.00%     68.64% # Class of executed instruction
system.cpu.op_class::SimdSha256Hash2                0      0.00%     68.64% # Class of executed instruction
system.cpu.op_class::SimdShaSigma2                  0      0.00%     68.64% # Class of executed instruction
system.cpu.op_class::SimdShaSigma3                  0      0.00%     68.64% # Class of executed instruction
system.cpu.op_class::SimdPredAlu                    0      0.00%     68.64% # Class of executed instruction
system.cpu.op_class::MemRead                  9630585     20.77%     89.41% # Class of executed instruction
system.cpu.op_class::MemWrite                 1502591      3.24%     92.65% # Class of executed instruction
system.cpu.op_class::FloatMemRead             2569347      5.54%     98.19% # Class of executed instruction
system.cpu.op_class::FloatMemWrite             840834      1.81%    100.00% # Class of executed instruction
system.cpu.op_class::IprAccess                      0      0.00%    100.00% # Class of executed instruction
system.cpu.op_class::InstPrefetch                   0      0.00%    100.00% # Class of executed instruction
system.cpu.op_class::total                   46373931                       # Class of executed instruction
system.cpu.workload.numSyscalls                    80                       # Number of system calls
system.membus.snoop_filter.hit_multi_requests            0                       # Number of requests hitting in the snoop filter with multiple (>1) holders of the requested data.
system.membus.snoop_filter.hit_multi_snoops            0                       # Number of snoops hitting in the snoop filter with multiple (>1) holders of the requested data.
system.membus.snoop_filter.hit_single_requests         1944                       # Number of requests hitting in the snoop filter with a single holder of the requested data.
system.membus.snoop_filter.hit_single_snoops            0                       # Number of snoops hitting in the snoop filter with a single holder of the requested data.
system.membus.snoop_filter.tot_requests         17399                       # Total number of requests made to the snoop filter.
system.membus.snoop_filter.tot_snoops               0                       # Total number of snoops made to the snoop filter.
system.tol2bus.snoop_filter.hit_multi_requests            0                       # Number of requests hitting in the snoop filter with multiple (>1) holders of the requested data.
system.tol2bus.snoop_filter.hit_multi_snoops            0                       # Number of snoops hitting in the snoop filter with multiple (>1) holders of the requested data.
system.tol2bus.snoop_filter.hit_single_requests         6152                       # Number of requests hitting in the snoop filter with a single holder of the requested data.
system.tol2bus.snoop_filter.hit_single_snoops         2898                       # Number of snoops hitting in the snoop filter with a single holder of the requested data.
system.tol2bus.snoop_filter.tot_requests        22168                       # Total number of requests made to the snoop filter.
system.tol2bus.snoop_filter.tot_snoops           2898                       # Total number of snoops made to the snoop filter.
system.clk_domain.clock                          1000                       # Clock period in ticks
system.cpu.dcache.demand_hits::.cpu.data     14529116                       # number of demand (read+write) hits
system.cpu.dcache.demand_hits::total         14529116                       # number of demand (read+write) hits
system.cpu.dcache.overall_hits::.cpu.data     14529116                       # number of overall hits
system.cpu.dcache.overall_hits::total        14529116                       # number of overall hits
system.cpu.dcache.demand_misses::.cpu.data        14002                       # number of demand (read+write) misses
system.cpu.dcache.demand_misses::total          14002                       # number of demand (read+write) misses
system.cpu.dcache.overall_misses::.cpu.data        14002                       # number of overall misses
system.cpu.dcache.overall_misses::total         14002                       # number of overall misses
system.cpu.dcache.demand_miss_latency::.cpu.data   1106598500                       # number of demand (read+write) miss cycles
system.cpu.dcache.demand_miss_latency::total   1106598500                       # number of demand (read+write) miss cycles
system.cpu.dcache.overall_miss_latency::.cpu.data   1106598500                       # number of overall miss cycles
system.cpu.dcache.overall_miss_latency::total   1106598500                       # number of overall miss cycles
system.cpu.dcache.demand_accesses::.cpu.data     14543118                       # number of demand (read+write) accesses
system.cpu.dcache.demand_accesses::total     14543118                       # number of demand (read+write) accesses
system.cpu.dcache.overall_accesses::.cpu.data     14543118                       # number of overall (read+write) accesses
system.cpu.dcache.overall_accesses::total     14543118                       # number of overall (read+write) accesses
system.cpu.dcache.demand_miss_rate::.cpu.data     0.000963                       # miss rate for demand accesses
system.cpu.dcache.demand_miss_rate::total     0.000963                       # miss rate for demand accesses
system.cpu.dcache.overall_miss_rate::.cpu.data     0.000963                       # miss rate for overall accesses
system.cpu.dcache.overall_miss_rate::total     0.000963                       # miss rate for overall accesses
system.cpu.dcache.demand_avg_miss_latency::.cpu.data 79031.459791                       # average overall miss latency
system.cpu.dcache.demand_avg_miss_latency::total 79031.459791                       # average overall miss latency
system.cpu.dcache.overall_avg_miss_latency::.cpu.data 79031.459791                       # average overall miss latency
system.cpu.dcache.overall_avg_miss_latency::total 79031.459791                       # average overall miss latency
system.cpu.dcache.blocked_cycles::no_mshrs            0                       # number of cycles access was blocked
system.cpu.dcache.blocked_cycles::no_targets            0                       # number of cycles access was blocked
system.cpu.dcache.blocked::no_mshrs                 0                       # number of cycles access was blocked
system.cpu.dcache.blocked::no_targets               0                       # number of cycles access was blocked
system.cpu.dcache.avg_blocked_cycles::no_mshrs          nan                       # average number of cycles each access was blocked
system.cpu.dcache.avg_blocked_cycles::no_targets          nan                       # average number of cycles each access was blocked
system.cpu.dcache.writebacks::.writebacks         1353                       # number of writebacks
system.cpu.dcache.writebacks::total              1353                       # number of writebacks
system.cpu.dcache.demand_mshr_misses::.cpu.data        14002                       # number of demand (read+write) MSHR misses
system.cpu.dcache.demand_mshr_misses::total        14002                       # number of demand (read+write) MSHR misses
system.cpu.dcache.overall_mshr_misses::.cpu.data        14002                       # number of overall MSHR misses
system.cpu.dcache.overall_mshr_misses::total        14002                       # number of overall MSHR misses
system.cpu.dcache.demand_mshr_miss_latency::.cpu.data   1092596500                       # number of demand (read+write) MSHR miss cycles
system.cpu.dcache.demand_mshr_miss_latency::total   1092596500                       # number of demand (read+write) MSHR miss cycles
system.cpu.dcache.overall_mshr_miss_latency::.cpu.data   1092596500                       # number of overall MSHR miss cycles
system.cpu.dcache.overall_mshr_miss_latency::total   1092596500                       # number of overall MSHR miss cycles
system.cpu.dcache.demand_mshr_miss_rate::.cpu.data     0.000963                       # mshr miss rate for demand accesses
system.cpu.dcache.demand_mshr_miss_rate::total     0.000963                       # mshr miss rate for demand accesses
system.cpu.dcache.overall_mshr_miss_rate::.cpu.data     0.000963                       # mshr miss rate for overall accesses
system.cpu.dcache.overall_mshr_miss_rate::total     0.000963                       # mshr miss rate for overall accesses
system.cpu.dcache.demand_avg_mshr_miss_latency::.cpu.data 78031.459791                       # average overall mshr miss latency
system.cpu.dcache.demand_avg_mshr_miss_latency::total 78031.459791                       # average overall mshr miss latency
system.cpu.dcache.overall_avg_mshr_miss_latency::.cpu.data 78031.459791                       # average overall mshr miss latency
system.cpu.dcache.overall_avg_mshr_miss_latency::total 78031.459791                       # average overall mshr miss latency
system.cpu.dcache.replacements                   6008                       # number of replacements
system.cpu.dcache.ReadReq_hits::.cpu.data     12191013                       # number of ReadReq hits
system.cpu.dcache.ReadReq_hits::total        12191013                       # number of ReadReq hits
system.cpu.dcache.ReadReq_misses::.cpu.data         8759                       # number of ReadReq misses
system.cpu.dcache.ReadReq_misses::total          8759                       # number of ReadReq misses
system.cpu.dcache.ReadReq_miss_latency::.cpu.data    701944500                       # number of ReadReq miss cycles
system.cpu.dcache.ReadReq_miss_latency::total    701944500                       # number of ReadReq miss cycles
system.cpu.dcache.ReadReq_accesses::.cpu.data     12199772                       # number of ReadReq accesses(hits+misses)
system.cpu.dcache.ReadReq_accesses::total     12199772                       # number of ReadReq accesses(hits+misses)
system.cpu.dcache.ReadReq_miss_rate::.cpu.data     0.000718                       # miss rate for ReadReq accesses
system.cpu.dcache.ReadReq_miss_rate::total     0.000718                       # miss rate for ReadReq accesses
system.cpu.dcache.ReadReq_avg_miss_latency::.cpu.data 80139.799064                       # average ReadReq miss latency
system.cpu.dcache.ReadReq_avg_miss_latency::total 80139.799064                       # average ReadReq miss latency
system.cpu.dcache.ReadReq_mshr_misses::.cpu.data         8759                       # number of ReadReq MSHR misses
system.cpu.dcache.ReadReq_mshr_misses::total         8759                       # number of ReadReq MSHR misses
system.cpu.dcache.ReadReq_mshr_miss_latency::.cpu.data    693185500                       # number of ReadReq MSHR miss cycles
system.cpu.dcache.ReadReq_mshr_miss_latency::total    693185500                       # number of ReadReq MSHR miss cycles
system.cpu.dcache.ReadReq_mshr_miss_rate::.cpu.data     0.000718                       # mshr miss rate for ReadReq accesses
system.cpu.dcache.ReadReq_mshr_miss_rate::total     0.000718                       # mshr miss rate for ReadReq accesses
system.cpu.dcache.ReadReq_avg_mshr_miss_latency::.cpu.data 79139.799064                       # average ReadReq mshr miss latency
system.cpu.dcache.ReadReq_avg_mshr_miss_latency::total 79139.799064                       # average ReadReq mshr miss latency
system.cpu.dcache.WriteReq_hits::.cpu.data      2338103                       # number of WriteReq hits
system.cpu.dcache.WriteReq_hits::total        2338103                       # number of WriteReq hits
system.cpu.dcache.WriteReq_misses::.cpu.data         5243                       # number of WriteReq misses
system.cpu.dcache.WriteReq_misses::total         5243                       # number of WriteReq misses
system.cpu.dcache.WriteReq_miss_latency::.cpu.data    404654000                       # number of WriteReq miss cycles
system.cpu.dcache.WriteReq_miss_latency::total    404654000                       # number of WriteReq miss cycles
system.cpu.dcache.WriteReq_accesses::.cpu.data      2343346                       # number of WriteReq accesses(hits+misses)
system.cpu.dcache.WriteReq_accesses::total      2343346                       # number of WriteReq accesses(hits+misses)
system.cpu.dcache.WriteReq_miss_rate::.cpu.data     0.002237                       # miss rate for WriteReq accesses
system.cpu.dcache.WriteReq_miss_rate::total     0.002237                       # miss rate for WriteReq accesses
system.cpu.dcache.WriteReq_avg_miss_latency::.cpu.data 77179.858859                       # average WriteReq miss latency
system.cpu.dcache.WriteReq_avg_miss_latency::total 77179.858859                       # average WriteReq miss latency
system.cpu.dcache.WriteReq_mshr_misses::.cpu.data         5243                       # number of WriteReq MSHR misses
system.cpu.dcache.WriteReq_mshr_misses::total         5243                       # number of WriteReq MSHR misses
system.cpu.dcache.WriteReq_mshr_miss_latency::.cpu.data    399411000                       # number of WriteReq MSHR miss cycles
system.cpu.dcache.WriteReq_mshr_miss_latency::total    399411000                       # number of WriteReq MSHR miss cycles
system.cpu.dcache.WriteReq_mshr_miss_rate::.cpu.data     0.002237                       # mshr miss rate for WriteReq accesses
system.cpu.dcache.WriteReq_mshr_miss_rate::total     0.002237                       # mshr miss rate for WriteReq accesses
system.cpu.dcache.WriteReq_avg_mshr_miss_latency::.cpu.data 76179.858859                       # average WriteReq mshr miss latency
system.cpu.dcache.WriteReq_avg_mshr_miss_latency::total 76179.858859                       # average WriteReq mshr miss latency
system.cpu.dcache.power_state.pwrStateResidencyTicks::UNDEFINED  55090682500                       # Cumulative time (in ticks) in various power states
system.cpu.dcache.tags.tagsinuse          7467.710309                       # Cycle average of tags in use
system.cpu.dcache.tags.total_refs            14543118                       # Total number of references to valid blocks.
system.cpu.dcache.tags.sampled_refs             14002                       # Sample count of references to valid blocks.
system.cpu.dcache.tags.avg_refs           1038.645765                       # Average number of references to valid blocks.
system.cpu.dcache.tags.warmup_cycle            174500                       # Cycle when the warmup percentage was hit.
system.cpu.dcache.tags.occ_blocks::.cpu.data  7467.710309                       # Average occupied blocks per requestor
system.cpu.dcache.tags.occ_percent::.cpu.data     0.911586                       # Average percentage of cache occupancy
system.cpu.dcache.tags.occ_percent::total     0.911586                       # Average percentage of cache occupancy
system.cpu.dcache.tags.occ_task_id_blocks::1024         7994                       # Occupied blocks per task id
system.cpu.dcache.tags.age_task_id_blocks_1024::0           26                       # Occupied blocks per task id
system.cpu.dcache.tags.age_task_id_blocks_1024::1           39                       # Occupied blocks per task id
system.cpu.dcache.tags.age_task_id_blocks_1024::2           32                       # Occupied blocks per task id
system.cpu.dcache.tags.age_task_id_blocks_1024::3          413                       # Occupied blocks per task id
system.cpu.dcache.tags.age_task_id_blocks_1024::4         7484                       # Occupied blocks per task id
system.cpu.dcache.tags.occ_task_id_percent::1024     0.975830                       # Percentage of cache occupancy per task id
system.cpu.dcache.tags.tag_accesses          29100238                       # Number of tag accesses
system.cpu.dcache.tags.data_accesses         29100238                       # Number of data accesses
system.cpu.dcache.tags.power_state.pwrStateResidencyTicks::UNDEFINED  55090682500                       # Cumulative time (in ticks) in various power states
system.cpu.dtb.rdAccesses                    12199984                       # TLB accesses on read requests
system.cpu.dtb.wrAccesses                     2343432                       # TLB accesses on write requests
system.cpu.dtb.rdMisses                          1334                       # TLB misses on read requests
system.cpu.dtb.wrMisses                           211                       # TLB misses on write requests
system.cpu.dtb.walker.power_state.pwrStateResidencyTicks::UNDEFINED  55090682500                       # Cumulative time (in ticks) in various power states
system.cpu.dtb_walker_cache.blocked_cycles::no_mshrs            0                       # number of cycles access was blocked
system.cpu.dtb_walker_cache.blocked_cycles::no_targets            0                       # number of cycles access was blocked
system.cpu.dtb_walker_cache.blocked::no_mshrs            0                       # number of cycles access was blocked
system.cpu.dtb_walker_cache.blocked::no_targets            0                       # number of cycles access was blocked
system.cpu.dtb_walker_cache.avg_blocked_cycles::no_mshrs          nan                       # average number of cycles each access was blocked
system.cpu.dtb_walker_cache.avg_blocked_cycles::no_targets          nan                       # average number of cycles each access was blocked
system.cpu.dtb_walker_cache.replacements            0                       # number of replacements
system.cpu.dtb_walker_cache.power_state.pwrStateResidencyTicks::UNDEFINED  55090682500                       # Cumulative time (in ticks) in various power states
system.cpu.dtb_walker_cache.tags.tagsinuse            0                       # Cycle average of tags in use
system.cpu.dtb_walker_cache.tags.total_refs            0                       # Total number of references to valid blocks.
system.cpu.dtb_walker_cache.tags.sampled_refs            0                       # Sample count of references to valid blocks.
system.cpu.dtb_walker_cache.tags.avg_refs          nan                       # Average number of references to valid blocks.
system.cpu.dtb_walker_cache.tags.warmup_cycle            0                       # Cycle when the warmup percentage was hit.
system.cpu.dtb_walker_cache.tags.tag_accesses            0                       # Number of tag accesses
system.cpu.dtb_walker_cache.tags.data_accesses            0                       # Number of data accesses
system.cpu.dtb_walker_cache.tags.power_state.pwrStateResidencyTicks::UNDEFINED  55090682500                       # Cumulative time (in ticks) in various power states
system.cpu.icache.demand_hits::.cpu.inst     39295683                       # number of demand (read+write) hits
system.cpu.icache.demand_hits::total         39295683                       # number of demand (read+write) hits
system.cpu.icache.overall_hits::.cpu.inst     39295683                       # number of overall hits
system.cpu.icache.overall_hits::total        39295683                       # number of overall hits
system.cpu.icache.demand_misses::.cpu.inst         2014                       # number of demand (read+write) misses
system.cpu.icache.demand_misses::total           2014                       # number of demand (read+write) misses
system.cpu.icache.overall_misses::.cpu.inst         2014                       # number of overall misses
system.cpu.icache.overall_misses::total          2014                       # number of overall misses
system.cpu.icache.demand_miss_latency::.cpu.inst    159321000                       # number of demand (read+write) miss cycles
system.cpu.icache.demand_miss_latency::total    159321000                       # number of demand (read+write) miss cycles
system.cpu.icache.overall_miss_latency::.cpu.inst    159321000                       # number of overall miss cycles
system.cpu.icache.overall_miss_latency::total    159321000                       # number of overall miss cycles
system.cpu.icache.demand_accesses::.cpu.inst     39297697                       # number of demand (read+write) accesses
system.cpu.icache.demand_accesses::total     39297697                       # number of demand (read+write) accesses
system.cpu.icache.overall_accesses::.cpu.inst     39297697                       # number of overall (read+write) accesses
system.cpu.icache.overall_accesses::total     39297697                       # number of overall (read+write) accesses
system.cpu.icache.demand_miss_rate::.cpu.inst     0.000051                       # miss rate for demand accesses
system.cpu.icache.demand_miss_rate::total     0.000051                       # miss rate for demand accesses
system.cpu.icache.overall_miss_rate::.cpu.inst     0.000051                       # miss rate for overall accesses
system.cpu.icache.overall_miss_rate::total     0.000051                       # miss rate for overall accesses
system.cpu.icache.demand_avg_miss_latency::.cpu.inst 79106.752731                       # average overall miss latency
system.cpu.icache.demand_avg_miss_latency::total 79106.752731                       # average overall miss latency
system.cpu.icache.overall_avg_miss_latency::.cpu.inst 79106.752731                       # average overall miss latency
system.cpu.icache.overall_avg_miss_latency::total 79106.752731                       # average overall miss latency
system.cpu.icache.blocked_cycles::no_mshrs            0                       # number of cycles access was blocked
system.cpu.icache.blocked_cycles::no_targets            0                       # number of cycles access was blocked
system.cpu.icache.blocked::no_mshrs                 0                       # number of cycles access was blocked
system.cpu.icache.blocked::no_targets               0                       # number of cycles access was blocked
system.cpu.icache.avg_blocked_cycles::no_mshrs          nan                       # average number of cycles each access was blocked
system.cpu.icache.avg_blocked_cycles::no_targets          nan                       # average number of cycles each access was blocked
system.cpu.icache.writebacks::.writebacks          144                       # number of writebacks
system.cpu.icache.writebacks::total               144                       # number of writebacks
system.cpu.icache.demand_mshr_misses::.cpu.inst         2014                       # number of demand (read+write) MSHR misses
system.cpu.icache.demand_mshr_misses::total         2014                       # number of demand (read+write) MSHR misses
system.cpu.icache.overall_mshr_misses::.cpu.inst         2014                       # number of overall MSHR misses
system.cpu.icache.overall_mshr_misses::total         2014                       # number of overall MSHR misses
system.cpu.icache.demand_mshr_miss_latency::.cpu.inst    157307000                       # number of demand (read+write) MSHR miss cycles
system.cpu.icache.demand_mshr_miss_latency::total    157307000                       # number of demand (read+write) MSHR miss cycles
system.cpu.icache.overall_mshr_miss_latency::.cpu.inst    157307000                       # number of overall MSHR miss cycles
system.cpu.icache.overall_mshr_miss_latency::total    157307000                       # number of overall MSHR miss cycles
system.cpu.icache.demand_mshr_miss_rate::.cpu.inst     0.000051                       # mshr miss rate for demand accesses
system.cpu.icache.demand_mshr_miss_rate::total     0.000051                       # mshr miss rate for demand accesses
system.cpu.icache.overall_mshr_miss_rate::.cpu.inst     0.000051                       # mshr miss rate for overall accesses
system.cpu.icache.overall_mshr_miss_rate::total     0.000051                       # mshr miss rate for overall accesses
system.cpu.icache.demand_avg_mshr_miss_latency::.cpu.inst 78106.752731                       # average overall mshr miss latency
system.cpu.icache.demand_avg_mshr_miss_latency::total 78106.752731                       # average overall mshr miss latency
system.cpu.icache.overall_avg_mshr_miss_latency::.cpu.inst 78106.752731                       # average overall mshr miss latency
system.cpu.icache.overall_avg_mshr_miss_latency::total 78106.752731                       # average overall mshr miss latency
system.cpu.icache.replacements                    144                       # number of replacements
system.cpu.icache.ReadReq_hits::.cpu.inst     39295683                       # number of ReadReq hits
system.cpu.icache.ReadReq_hits::total        39295683                       # number of ReadReq hits
system.cpu.icache.ReadReq_misses::.cpu.inst         2014                       # number of ReadReq misses
system.cpu.icache.ReadReq_misses::total          2014                       # number of ReadReq misses
system.cpu.icache.ReadReq_miss_latency::.cpu.inst    159321000                       # number of ReadReq miss cycles
system.cpu.icache.ReadReq_miss_latency::total    159321000                       # number of ReadReq miss cycles
system.cpu.icache.ReadReq_accesses::.cpu.inst     39297697                       # number of ReadReq accesses(hits+misses)
system.cpu.icache.ReadReq_accesses::total     39297697                       # number of ReadReq accesses(hits+misses)
system.cpu.icache.ReadReq_miss_rate::.cpu.inst     0.000051                       # miss rate for ReadReq accesses
system.cpu.icache.ReadReq_miss_rate::total     0.000051                       # miss rate for ReadReq accesses
system.cpu.icache.ReadReq_avg_miss_latency::.cpu.inst 79106.752731                       # average ReadReq miss latency
system.cpu.icache.ReadReq_avg_miss_latency::total 79106.752731                       # average ReadReq miss latency
system.cpu.icache.ReadReq_mshr_misses::.cpu.inst         2014                       # number of ReadReq MSHR misses
system.cpu.icache.ReadReq_mshr_misses::total         2014                       # number of ReadReq MSHR misses
system.cpu.icache.ReadReq_mshr_miss_latency::.cpu.inst    157307000                       # number of ReadReq MSHR miss cycles
system.cpu.icache.ReadReq_mshr_miss_latency::total    157307000                       # number of ReadReq MSHR miss cycles
system.cpu.icache.ReadReq_mshr_miss_rate::.cpu.inst     0.000051                       # mshr miss rate for ReadReq accesses
system.cpu.icache.ReadReq_mshr_miss_rate::total     0.000051                       # mshr miss rate for ReadReq accesses
system.cpu.icache.ReadReq_avg_mshr_miss_latency::.cpu.inst 78106.752731                       # average ReadReq mshr miss latency
system.cpu.icache.ReadReq_avg_mshr_miss_latency::total 78106.752731                       # average ReadReq mshr miss latency
system.cpu.icache.power_state.pwrStateResidencyTicks::UNDEFINED  55090682500                       # Cumulative time (in ticks) in various power states
system.cpu.icache.tags.tagsinuse          1624.477907                       # Cycle average of tags in use
system.cpu.icache.tags.total_refs            39297697                       # Total number of references to valid blocks.
system.cpu.icache.tags.sampled_refs              2014                       # Sample count of references to valid blocks.
system.cpu.icache.tags.avg_refs          19512.262661                       # Average number of references to valid blocks.
system.cpu.icache.tags.warmup_cycle             87500                       # Cycle when the warmup percentage was hit.
system.cpu.icache.tags.occ_blocks::.cpu.inst  1624.477907                       # Average occupied blocks per requestor
system.cpu.icache.tags.occ_percent::.cpu.inst     0.396601                       # Average percentage of cache occupancy
system.cpu.icache.tags.occ_percent::total     0.396601                       # Average percentage of cache occupancy
system.cpu.icache.tags.occ_task_id_blocks::1024         1870                       # Occupied blocks per task id
system.cpu.icache.tags.age_task_id_blocks_1024::0           50                       # Occupied blocks per task id
system.cpu.icache.tags.age_task_id_blocks_1024::1           62                       # Occupied blocks per task id
system.cpu.icache.tags.age_task_id_blocks_1024::2          115                       # Occupied blocks per task id
system.cpu.icache.tags.age_task_id_blocks_1024::4         1643                       # Occupied blocks per task id
system.cpu.icache.tags.occ_task_id_percent::1024     0.456543                       # Percentage of cache occupancy per task id
system.cpu.icache.tags.tag_accesses          78597408                       # Number of tag accesses
system.cpu.icache.tags.data_accesses         78597408                       # Number of data accesses
system.cpu.icache.tags.power_state.pwrStateResidencyTicks::UNDEFINED  55090682500                       # Cumulative time (in ticks) in various power states
system.cpu.interrupts.clk_domain.clock           8000                       # Clock period in ticks
system.cpu.itb.rdAccesses                           0                       # TLB accesses on read requests
system.cpu.itb.wrAccesses                    39297824                       # TLB accesses on write requests
system.cpu.itb.rdMisses                             0                       # TLB misses on read requests
system.cpu.itb.wrMisses                           433                       # TLB misses on write requests
system.cpu.itb.walker.power_state.pwrStateResidencyTicks::UNDEFINED  55090682500                       # Cumulative time (in ticks) in various power states
system.cpu.itb_walker_cache.blocked_cycles::no_mshrs            0                       # number of cycles access was blocked
system.cpu.itb_walker_cache.blocked_cycles::no_targets            0                       # number of cycles access was blocked
system.cpu.itb_walker_cache.blocked::no_mshrs            0                       # number of cycles access was blocked
system.cpu.itb_walker_cache.blocked::no_targets            0                       # number of cycles access was blocked
system.cpu.itb_walker_cache.avg_blocked_cycles::no_mshrs          nan                       # average number of cycles each access was blocked
system.cpu.itb_walker_cache.avg_blocked_cycles::no_targets          nan                       # average number of cycles each access was blocked
system.cpu.itb_walker_cache.replacements            0                       # number of replacements
system.cpu.itb_walker_cache.power_state.pwrStateResidencyTicks::UNDEFINED  55090682500                       # Cumulative time (in ticks) in various power states
system.cpu.itb_walker_cache.tags.tagsinuse            0                       # Cycle average of tags in use
system.cpu.itb_walker_cache.tags.total_refs            0                       # Total number of references to valid blocks.
system.cpu.itb_walker_cache.tags.sampled_refs            0                       # Sample count of references to valid blocks.
system.cpu.itb_walker_cache.tags.avg_refs          nan                       # Average number of references to valid blocks.
system.cpu.itb_walker_cache.tags.warmup_cycle            0                       # Cycle when the warmup percentage was hit.
system.cpu.itb_walker_cache.tags.tag_accesses            0                       # Number of tag accesses
system.cpu.itb_walker_cache.tags.data_accesses            0                       # Number of data accesses
system.cpu.itb_walker_cache.tags.power_state.pwrStateResidencyTicks::UNDEFINED  55090682500                       # Cumulative time (in ticks) in various power states
system.cpu.power_state.pwrStateResidencyTicks::ON  55090682500                       # Cumulative time (in ticks) in various power states
system.cpu.thread_0.numInsts                        0                       # Number of Instructions committed
system.cpu.thread_0.numOps                          0                       # Number of Ops committed
system.cpu.thread_0.numMemRefs                      0                       # Number of Memory References
system.cpu_clk_domain.clock                       500                       # Clock period in ticks
system.cpu_voltage_domain.voltage                   1                       # Voltage in Volts
system.l2.demand_hits::.cpu.inst                   10                       # number of demand (read+write) hits
system.l2.demand_hits::.cpu.data                  551                       # number of demand (read+write) hits
system.l2.demand_hits::total                      561                       # number of demand (read+write) hits
system.l2.overall_hits::.cpu.inst                  10                       # number of overall hits
system.l2.overall_hits::.cpu.data                 551                       # number of overall hits
system.l2.overall_hits::total                     561                       # number of overall hits
system.l2.demand_misses::.cpu.inst               2004                       # number of demand (read+write) misses
system.l2.demand_misses::.cpu.data              13451                       # number of demand (read+write) misses
system.l2.demand_misses::total                  15455                       # number of demand (read+write) misses
system.l2.overall_misses::.cpu.inst              2004                       # number of overall misses
system.l2.overall_misses::.cpu.data             13451                       # number of overall misses
system.l2.overall_misses::total                 15455                       # number of overall misses
system.l2.demand_miss_latency::.cpu.inst    154180000                       # number of demand (read+write) miss cycles
system.l2.demand_miss_latency::.cpu.data   1065805500                       # number of demand (read+write) miss cycles
system.l2.demand_miss_latency::total       1219985500                       # number of demand (read+write) miss cycles
system.l2.overall_miss_latency::.cpu.inst    154180000                       # number of overall miss cycles
system.l2.overall_miss_latency::.cpu.data   1065805500                       # number of overall miss cycles
system.l2.overall_miss_latency::total      1219985500                       # number of overall miss cycles
system.l2.demand_accesses::.cpu.inst             2014                       # number of demand (read+write) accesses
system.l2.demand_accesses::.cpu.data            14002                       # number of demand (read+write) accesses
system.l2.demand_accesses::total                16016                       # number of demand (read+write) accesses
system.l2.overall_accesses::.cpu.inst            2014                       # number of overall (read+write) accesses
system.l2.overall_accesses::.cpu.data           14002                       # number of overall (read+write) accesses
system.l2.overall_accesses::total               16016                       # number of overall (read+write) accesses
system.l2.demand_miss_rate::.cpu.inst        0.995035                       # miss rate for demand accesses
system.l2.demand_miss_rate::.cpu.data        0.960648                       # miss rate for demand accesses
system.l2.demand_miss_rate::total            0.964973                       # miss rate for demand accesses
system.l2.overall_miss_rate::.cpu.inst       0.995035                       # miss rate for overall accesses
system.l2.overall_miss_rate::.cpu.data       0.960648                       # miss rate for overall accesses
system.l2.overall_miss_rate::total           0.964973                       # miss rate for overall accesses
system.l2.demand_avg_miss_latency::.cpu.inst 76936.127745                       # average overall miss latency
system.l2.demand_avg_miss_latency::.cpu.data 79236.153446                       # average overall miss latency
system.l2.demand_avg_miss_latency::total 78937.916532                       # average overall miss latency
system.l2.overall_avg_miss_latency::.cpu.inst 76936.127745                       # average overall miss latency
system.l2.overall_avg_miss_latency::.cpu.data 79236.153446                       # average overall miss latency
system.l2.overall_avg_miss_latency::total 78937.916532                       # average overall miss latency
system.l2.blocked_cycles::no_mshrs                  0                       # number of cycles access was blocked
system.l2.blocked_cycles::no_targets                0                       # number of cycles access was blocked
system.l2.blocked::no_mshrs                         0                       # number of cycles access was blocked
system.l2.blocked::no_targets                       0                       # number of cycles access was blocked
system.l2.avg_blocked_cycles::no_mshrs            nan                       # average number of cycles each access was blocked
system.l2.avg_blocked_cycles::no_targets          nan                       # average number of cycles each access was blocked
system.l2.writebacks::.writebacks                 315                       # number of writebacks
system.l2.writebacks::total                       315                       # number of writebacks
system.l2.demand_mshr_misses::.cpu.inst          2004                       # number of demand (read+write) MSHR misses
system.l2.demand_mshr_misses::.cpu.data         13451                       # number of demand (read+write) MSHR misses
system.l2.demand_mshr_misses::total             15455                       # number of demand (read+write) MSHR misses
system.l2.overall_mshr_misses::.cpu.inst         2004                       # number of overall MSHR misses
system.l2.overall_mshr_misses::.cpu.data        13451                       # number of overall MSHR misses
system.l2.overall_mshr_misses::total            15455                       # number of overall MSHR misses
system.l2.demand_mshr_miss_latency::.cpu.inst    134140000                       # number of demand (read+write) MSHR miss cycles
system.l2.demand_mshr_miss_latency::.cpu.data    931295500                       # number of demand (read+write) MSHR miss cycles
system.l2.demand_mshr_miss_latency::total   1065435500                       # number of demand (read+write) MSHR miss cycles
system.l2.overall_mshr_miss_latency::.cpu.inst    134140000                       # number of overall MSHR miss cycles
system.l2.overall_mshr_miss_latency::.cpu.data    931295500                       # number of overall MSHR miss cycles
system.l2.overall_mshr_miss_latency::total   1065435500                       # number of overall MSHR miss cycles
system.l2.demand_mshr_miss_rate::.cpu.inst     0.995035                       # mshr miss rate for demand accesses
system.l2.demand_mshr_miss_rate::.cpu.data     0.960648                       # mshr miss rate for demand accesses
system.l2.demand_mshr_miss_rate::total       0.964973                       # mshr miss rate for demand accesses
system.l2.overall_mshr_miss_rate::.cpu.inst     0.995035                       # mshr miss rate for overall accesses
system.l2.overall_mshr_miss_rate::.cpu.data     0.960648                       # mshr miss rate for overall accesses
system.l2.overall_mshr_miss_rate::total      0.964973                       # mshr miss rate for overall accesses
system.l2.demand_avg_mshr_miss_latency::.cpu.inst 66936.127745                       # average overall mshr miss latency
system.l2.demand_avg_mshr_miss_latency::.cpu.data 69236.153446                       # average overall mshr miss latency
system.l2.demand_avg_mshr_miss_latency::total 68937.916532                       # average overall mshr miss latency
system.l2.overall_avg_mshr_miss_latency::.cpu.inst 66936.127745                       # average overall mshr miss latency
system.l2.overall_avg_mshr_miss_latency::.cpu.data 69236.153446                       # average overall mshr miss latency
system.l2.overall_avg_mshr_miss_latency::total 68937.916532                       # average overall mshr miss latency
system.l2.replacements                           3883                       # number of replacements
system.l2.WritebackDirty_hits::.writebacks         1353                       # number of WritebackDirty hits
system.l2.WritebackDirty_hits::total             1353                       # number of WritebackDirty hits
system.l2.WritebackDirty_accesses::.writebacks         1353                       # number of WritebackDirty accesses(hits+misses)
system.l2.WritebackDirty_accesses::total         1353                       # number of WritebackDirty accesses(hits+misses)
system.l2.WritebackClean_hits::.writebacks          144                       # number of WritebackClean hits
system.l2.WritebackClean_hits::total              144                       # number of WritebackClean hits
system.l2.WritebackClean_accesses::.writebacks          144                       # number of WritebackClean accesses(hits+misses)
system.l2.WritebackClean_accesses::total          144                       # number of WritebackClean accesses(hits+misses)
system.l2.CleanEvict_mshr_misses::.writebacks          959                       # number of CleanEvict MSHR misses
system.l2.CleanEvict_mshr_misses::total           959                       # number of CleanEvict MSHR misses
system.l2.CleanEvict_mshr_miss_rate::.writebacks          inf                       # mshr miss rate for CleanEvict accesses
system.l2.CleanEvict_mshr_miss_rate::total          inf                       # mshr miss rate for CleanEvict accesses
system.l2.ReadExReq_hits::.cpu.data               107                       # number of ReadExReq hits
system.l2.ReadExReq_hits::total                   107                       # number of ReadExReq hits
system.l2.ReadExReq_misses::.cpu.data            5136                       # number of ReadExReq misses
system.l2.ReadExReq_misses::total                5136                       # number of ReadExReq misses
system.l2.ReadExReq_miss_latency::.cpu.data    390421500                       # number of ReadExReq miss cycles
system.l2.ReadExReq_miss_latency::total     390421500                       # number of ReadExReq miss cycles
system.l2.ReadExReq_accesses::.cpu.data          5243                       # number of ReadExReq accesses(hits+misses)
system.l2.ReadExReq_accesses::total              5243                       # number of ReadExReq accesses(hits+misses)
system.l2.ReadExReq_miss_rate::.cpu.data     0.979592                       # miss rate for ReadExReq accesses
system.l2.ReadExReq_miss_rate::total         0.979592                       # miss rate for ReadExReq accesses
system.l2.ReadExReq_avg_miss_latency::.cpu.data 76016.647196                       # average ReadExReq miss latency
system.l2.ReadExReq_avg_miss_latency::total 76016.647196                       # average ReadExReq miss latency
system.l2.ReadExReq_mshr_misses::.cpu.data         5136                       # number of ReadExReq MSHR misses
system.l2.ReadExReq_mshr_misses::total           5136                       # number of ReadExReq MSHR misses
system.l2.ReadExReq_mshr_miss_latency::.cpu.data    339061500                       # number of ReadExReq MSHR miss cycles
system.l2.ReadExReq_mshr_miss_latency::total    339061500                       # number of ReadExReq MSHR miss cycles
system.l2.ReadExReq_mshr_miss_rate::.cpu.data     0.979592                       # mshr miss rate for ReadExReq accesses
system.l2.ReadExReq_mshr_miss_rate::total     0.979592                       # mshr miss rate for ReadExReq accesses
system.l2.ReadExReq_avg_mshr_miss_latency::.cpu.data 66016.647196                       # average ReadExReq mshr miss latency
system.l2.ReadExReq_avg_mshr_miss_latency::total 66016.647196                       # average ReadExReq mshr miss latency
system.l2.ReadCleanReq_hits::.cpu.inst             10                       # number of ReadCleanReq hits
system.l2.ReadCleanReq_hits::total                 10                       # number of ReadCleanReq hits
system.l2.ReadCleanReq_misses::.cpu.inst         2004                       # number of ReadCleanReq misses
system.l2.ReadCleanReq_misses::total             2004                       # number of ReadCleanReq misses
system.l2.ReadCleanReq_miss_latency::.cpu.inst    154180000                       # number of ReadCleanReq miss cycles
system.l2.ReadCleanReq_miss_latency::total    154180000                       # number of ReadCleanReq miss cycles
system.l2.ReadCleanReq_accesses::.cpu.inst         2014                       # number of ReadCleanReq accesses(hits+misses)
system.l2.ReadCleanReq_accesses::total           2014                       # number of ReadCleanReq accesses(hits+misses)
system.l2.ReadCleanReq_miss_rate::.cpu.inst     0.995035                       # miss rate for ReadCleanReq accesses
system.l2.ReadCleanReq_miss_rate::total      0.995035                       # miss rate for ReadCleanReq accesses
system.l2.ReadCleanReq_avg_miss_latency::.cpu.inst 76936.127745                       # average ReadCleanReq miss latency
system.l2.ReadCleanReq_avg_miss_latency::total 76936.127745                       # average ReadCleanReq miss latency
system.l2.ReadCleanReq_mshr_misses::.cpu.inst         2004                       # number of ReadCleanReq MSHR misses
system.l2.ReadCleanReq_mshr_misses::total         2004                       # number of ReadCleanReq MSHR misses
system.l2.ReadCleanReq_mshr_miss_latency::.cpu.inst    134140000                       # number of ReadCleanReq MSHR miss cycles
system.l2.ReadCleanReq_mshr_miss_latency::total    134140000                       # number of ReadCleanReq MSHR miss cycles
system.l2.ReadCleanReq_mshr_miss_rate::.cpu.inst     0.995035                       # mshr miss rate for ReadCleanReq accesses
system.l2.ReadCleanReq_mshr_miss_rate::total     0.995035                       # mshr miss rate for ReadCleanReq accesses
system.l2.ReadCleanReq_avg_mshr_miss_latency::.cpu.inst 66936.127745                       # average ReadCleanReq mshr miss latency
system.l2.ReadCleanReq_avg_mshr_miss_latency::total 66936.127745                       # average ReadCleanReq mshr miss latency
system.l2.ReadSharedReq_hits::.cpu.data           444                       # number of ReadSharedReq hits
system.l2.ReadSharedReq_hits::total               444                       # number of ReadSharedReq hits
system.l2.ReadSharedReq_misses::.cpu.data         8315                       # number of ReadSharedReq misses
system.l2.ReadSharedReq_misses::total            8315                       # number of ReadSharedReq misses
system.l2.ReadSharedReq_miss_latency::.cpu.data    675384000                       # number of ReadSharedReq miss cycles
system.l2.ReadSharedReq_miss_latency::total    675384000                       # number of ReadSharedReq miss cycles
system.l2.ReadSharedReq_accesses::.cpu.data         8759                       # number of ReadSharedReq accesses(hits+misses)
system.l2.ReadSharedReq_accesses::total          8759                       # number of ReadSharedReq accesses(hits+misses)
system.l2.ReadSharedReq_miss_rate::.cpu.data     0.949309                       # miss rate for ReadSharedReq accesses
system.l2.ReadSharedReq_miss_rate::total     0.949309                       # miss rate for ReadSharedReq accesses
system.l2.ReadSharedReq_avg_miss_latency::.cpu.data 81224.774504                       # average ReadSharedReq miss latency
system.l2.ReadSharedReq_avg_miss_latency::total 81224.774504                       # average ReadSharedReq miss latency
system.l2.ReadSharedReq_mshr_misses::.cpu.data         8315                       # number of ReadSharedReq MSHR misses
system.l2.ReadSharedReq_mshr_misses::total         8315                       # number of ReadSharedReq MSHR misses
system.l2.ReadSharedReq_mshr_miss_latency::.cpu.data    592234000                       # number of ReadSharedReq MSHR miss cycles
system.l2.ReadSharedReq_mshr_miss_latency::total    592234000                       # number of ReadSharedReq MSHR miss cycles
system.l2.ReadSharedReq_mshr_miss_rate::.cpu.data     0.949309                       # mshr miss rate for ReadSharedReq accesses
system.l2.ReadSharedReq_mshr_miss_rate::total     0.949309                       # mshr miss rate for ReadSharedReq accesses
system.l2.ReadSharedReq_avg_mshr_miss_latency::.cpu.data 71224.774504                       # average ReadSharedReq mshr miss latency
system.l2.ReadSharedReq_avg_mshr_miss_latency::total 71224.774504                       # average ReadSharedReq mshr miss latency
system.l2.power_state.pwrStateResidencyTicks::UNDEFINED  55090682500                       # Cumulative time (in ticks) in various power states
system.l2.tags.tagsinuse                 10946.361895                       # Cycle average of tags in use
system.l2.tags.total_refs                       21209                       # Total number of references to valid blocks.
system.l2.tags.sampled_refs                     15818                       # Sample count of references to valid blocks.
system.l2.tags.avg_refs                      1.340814                       # Average number of references to valid blocks.
system.l2.tags.warmup_cycle                     77000                       # Cycle when the warmup percentage was hit.
system.l2.tags.occ_blocks::.writebacks     223.731843                       # Average occupied blocks per requestor
system.l2.tags.occ_blocks::.cpu.inst      1390.377005                       # Average occupied blocks per requestor
system.l2.tags.occ_blocks::.cpu.data      9332.253047                       # Average occupied blocks per requestor
system.l2.tags.occ_percent::.writebacks      0.013656                       # Average percentage of cache occupancy
system.l2.tags.occ_percent::.cpu.inst        0.084862                       # Average percentage of cache occupancy
system.l2.tags.occ_percent::.cpu.data        0.569596                       # Average percentage of cache occupancy
system.l2.tags.occ_percent::total            0.668113                       # Average percentage of cache occupancy
system.l2.tags.occ_task_id_blocks::1024         11935                       # Occupied blocks per task id
system.l2.tags.age_task_id_blocks_1024::0           61                       # Occupied blocks per task id
system.l2.tags.age_task_id_blocks_1024::1           68                       # Occupied blocks per task id
system.l2.tags.age_task_id_blocks_1024::2          158                       # Occupied blocks per task id
system.l2.tags.age_task_id_blocks_1024::3          432                       # Occupied blocks per task id
system.l2.tags.age_task_id_blocks_1024::4        11216                       # Occupied blocks per task id
system.l2.tags.occ_task_id_percent::1024     0.728455                       # Percentage of cache occupancy per task id
system.l2.tags.tag_accesses                     37986                       # Number of tag accesses
system.l2.tags.data_accesses                    37986                       # Number of data accesses
system.l2.tags.power_state.pwrStateResidencyTicks::UNDEFINED  55090682500                       # Cumulative time (in ticks) in various power states
system.mem_ctrls.avgPriority_.writebacks::samples       315.00                       # Average QoS priority value for accepted requests
system.mem_ctrls.avgPriority_.cpu.inst::samples      2004.00                       # Average QoS priority value for accepted requests
system.mem_ctrls.avgPriority_.cpu.data::samples     13443.00                       # Average QoS priority value for accepted requests
system.mem_ctrls.priorityMinLatency      0.000000018750                       # per QoS priority minimum request to response latency (s)
system.mem_ctrls.priorityMaxLatency      0.010540180500                       # per QoS priority maximum request to response latency (s)
system.mem_ctrls.numReadWriteTurnArounds           17                       # Number of turnarounds from READ to WRITE
system.mem_ctrls.numWriteReadTurnArounds           17                       # Number of turnarounds from WRITE to READ
system.mem_ctrls.numStayReadState               45347                       # Number of times bus staying in READ state
system.mem_ctrls.numStayWriteState                267                       # Number of times bus staying in WRITE state
system.mem_ctrls.readReqs                       15455                       # Number of read requests accepted
system.mem_ctrls.writeReqs                        315                       # Number of write requests accepted
system.mem_ctrls.readBursts                     15455                       # Number of controller read bursts, including those serviced by the write queue
system.mem_ctrls.writeBursts                      315                       # Number of controller write bursts, including those merged in the write queue
system.mem_ctrls.servicedByWrQ                      8                       # Number of controller read bursts serviced by the write queue
system.mem_ctrls.mergedWrBursts                     0                       # Number of controller write bursts merged with an existing one
system.mem_ctrls.neitherReadNorWriteReqs            0                       # Number of requests that are neither read nor write
system.mem_ctrls.avgRdQLen                       1.00                       # Average read queue length when enqueuing
system.mem_ctrls.avgWrQLen                      24.37                       # Average write queue length when enqueuing
system.mem_ctrls.numRdRetry                         0                       # Number of times read queue was full causing retry
system.mem_ctrls.numWrRetry                         0                       # Number of times write queue was full causing retry
system.mem_ctrls.readPktSize::0                     0                       # Read request sizes (log2)
system.mem_ctrls.readPktSize::1                     0                       # Read request sizes (log2)
system.mem_ctrls.readPktSize::2                     0                       # Read request sizes (log2)
system.mem_ctrls.readPktSize::3                     0                       # Read request sizes (log2)
system.mem_ctrls.readPktSize::4                     0                       # Read request sizes (log2)
system.mem_ctrls.readPktSize::5                     0                       # Read request sizes (log2)
system.mem_ctrls.readPktSize::6                 15455                       # Read request sizes (log2)
system.mem_ctrls.writePktSize::0                    0                       # Write request sizes (log2)
system.mem_ctrls.writePktSize::1                    0                       # Write request sizes (log2)
system.mem_ctrls.writePktSize::2                    0                       # Write request sizes (log2)
system.mem_ctrls.writePktSize::3                    0                       # Write request sizes (log2)
system.mem_ctrls.writePktSize::4                    0                       # Write request sizes (log2)
system.mem_ctrls.writePktSize::5                    0                       # Write request sizes (log2)
system.mem_ctrls.writePktSize::6                  315                       # Write request sizes (log2)
system.mem_ctrls.rdQLenPdf::0                   15447                       # What read queue length does an incoming req see
system.mem_ctrls.rdQLenPdf::1                       0                       # What read queue length does an incoming req see
system.mem_ctrls.rdQLenPdf::2                       0                       # What read queue length does an incoming req see
system.mem_ctrls.rdQLenPdf::3                       0                       # What read queue length does an incoming req see
system.mem_ctrls.rdQLenPdf::4                       0                       # What read queue length does an incoming req see
system.mem_ctrls.rdQLenPdf::5                       0                       # What read queue length does an incoming req see
system.mem_ctrls.rdQLenPdf::6                       0                       # What read queue length does an incoming req see
system.mem_ctrls.rdQLenPdf::7                       0                       # What read queue length does an incoming req see
system.mem_ctrls.rdQLenPdf::8                       0                       # What read queue length does an incoming req see
system.mem_ctrls.rdQLenPdf::9                       0                       # What read queue length does an incoming req see
system.mem_ctrls.rdQLenPdf::10                      0                       # What read queue length does an incoming req see
system.mem_ctrls.rdQLenPdf::11                      0                       # What read queue length does an incoming req see
system.mem_ctrls.rdQLenPdf::12                      0                       # What read queue length does an incoming req see
system.mem_ctrls.rdQLenPdf::13                      0                       # What read queue length does an incoming req see
system.mem_ctrls.rdQLenPdf::14                      0                       # What read queue length does an incoming req see
system.mem_ctrls.rdQLenPdf::15                      0                       # What read queue length does an incoming req see
system.mem_ctrls.rdQLenPdf::16                      0                       # What read queue length does an incoming req see
system.mem_ctrls.rdQLenPdf::17                      0                       # What read queue length does an incoming req see
system.mem_ctrls.rdQLenPdf::18                      0                       # What read queue length does an incoming req see
system.mem_ctrls.rdQLenPdf::19                      0                       # What read queue length does an incoming req see
system.mem_ctrls.rdQLenPdf::20                      0                       # What read queue length does an incoming req see
system.mem_ctrls.rdQLenPdf::21                      0                       # What read queue length does an incoming req see
system.mem_ctrls.rdQLenPdf::22                      0                       # What read queue length does an incoming req see
system.mem_ctrls.rdQLenPdf::23                      0                       # What read queue length does an incoming req see
system.mem_ctrls.rdQLenPdf::24                      0                       # What read queue length does an incoming req see
system.mem_ctrls.rdQLenPdf::25                      0                       # What read queue length does an incoming req see
system.mem_ctrls.rdQLenPdf::26                      0                       # What read queue length does an incoming req see
system.mem_ctrls.rdQLenPdf::27                      0                       # What read queue length does an incoming req see
system.mem_ctrls.rdQLenPdf::28                      0                       # What read queue length does an incoming req see
system.mem_ctrls.rdQLenPdf::29                      0                       # What read queue length does an incoming req see
system.mem_ctrls.rdQLenPdf::30                      0                       # What read queue length does an incoming req see
system.mem_ctrls.rdQLenPdf::31                      0                       # What read queue length does an incoming req see
system.mem_ctrls.wrQLenPdf::0                       1                       # What write queue length does an incoming req see
system.mem_ctrls.wrQLenPdf::1                       1                       # What write queue length does an incoming req see
system.mem_ctrls.wrQLenPdf::2                       1                       # What write queue length does an incoming req see
system.mem_ctrls.wrQLenPdf::3                       1                       # What write queue length does an incoming req see
system.mem_ctrls.wrQLenPdf::4                       1                       # What write queue length does an incoming req see
system.mem_ctrls.wrQLenPdf::5                       1                       # What write queue length does an incoming req see
system.mem_ctrls.wrQLenPdf::6                       1                       # What write queue length does an incoming req see
system.mem_ctrls.wrQLenPdf::7                       1                       # What write queue length does an incoming req see
system.mem_ctrls.wrQLenPdf::8                       1                       # What write queue length does an incoming req see
system.mem_ctrls.wrQLenPdf::9                       1                       # What write queue length does an incoming req see
system.mem_ctrls.wrQLenPdf::10                      1                       # What write queue length does an incoming req see
system.mem_ctrls.wrQLenPdf::11                      1                       # What write queue length does an incoming req see
system.mem_ctrls.wrQLenPdf::12                      1                       # What write queue length does an incoming req see
system.mem_ctrls.wrQLenPdf::13                      1                       # What write queue length does an incoming req see
system.mem_ctrls.wrQLenPdf::14                      1                       # What write queue length does an incoming req see
system.mem_ctrls.wrQLenPdf::15                      7                       # What write queue length does an incoming req see
system.mem_ctrls.wrQLenPdf::16                      7                       # What write queue length does an incoming req see
system.mem_ctrls.wrQLenPdf::17                     18                       # What write queue length does an incoming req see
system.mem_ctrls.wrQLenPdf::18                     18                       # What write queue length does an incoming req see
system.mem_ctrls.wrQLenPdf::19                     18                       # What write queue length does an incoming req see
system.mem_ctrls.wrQLenPdf::20                     18                       # What write queue length does an incoming req see
system.mem_ctrls.wrQLenPdf::21                     18                       # What write queue length does an incoming req see
system.mem_ctrls.wrQLenPdf::22                     18                       # What write queue length does an incoming req see
system.mem_ctrls.wrQLenPdf::23                     18                       # What write queue length does an incoming req see
system.mem_ctrls.wrQLenPdf::24                     18                       # What write queue length does an incoming req see
system.mem_ctrls.wrQLenPdf::25                     18                       # What write queue length does an incoming req see
system.mem_ctrls.wrQLenPdf::26                     18                       # What write queue length does an incoming req see
system.mem_ctrls.wrQLenPdf::27                     18                       # What write queue length does an incoming req see
system.mem_ctrls.wrQLenPdf::28                     18                       # What write queue length does an incoming req see
system.mem_ctrls.wrQLenPdf::29                     18                       # What write queue length does an incoming req see
system.mem_ctrls.wrQLenPdf::30                     18                       # What write queue length does an incoming req see
system.mem_ctrls.wrQLenPdf::31                     17                       # What write queue length does an incoming req see
system.mem_ctrls.wrQLenPdf::32                     17                       # What write queue length does an incoming req see
system.mem_ctrls.wrQLenPdf::33                      0                       # What write queue length does an incoming req see
system.mem_ctrls.wrQLenPdf::34                      0                       # What write queue length does an incoming req see
system.mem_ctrls.wrQLenPdf::35                      0                       # What write queue length does an incoming req see
system.mem_ctrls.wrQLenPdf::36                      0                       # What write queue length does an incoming req see
system.mem_ctrls.wrQLenPdf::37                      0                       # What write queue length does an incoming req see
system.mem_ctrls.wrQLenPdf::38                      0                       # What write queue length does an incoming req see
system.mem_ctrls.wrQLenPdf::39                      0                       # What write queue length does an incoming req see
system.mem_ctrls.wrQLenPdf::40                      0                       # What write queue length does an incoming req see
system.mem_ctrls.wrQLenPdf::41                      0                       # What write queue length does an incoming req see
system.mem_ctrls.wrQLenPdf::42                      0                       # What write queue length does an incoming req see
system.mem_ctrls.wrQLenPdf::43                      0                       # What write queue length does an incoming req see
system.mem_ctrls.wrQLenPdf::44                      0                       # What write queue length does an incoming req see
system.mem_ctrls.wrQLenPdf::45                      0                       # What write queue length does an incoming req see
system.mem_ctrls.wrQLenPdf::46                      0                       # What write queue length does an incoming req see
system.mem_ctrls.wrQLenPdf::47                      0                       # What write queue length does an incoming req see
system.mem_ctrls.wrQLenPdf::48                      0                       # What write queue length does an incoming req see
system.mem_ctrls.wrQLenPdf::49                      0                       # What write queue length does an incoming req see
system.mem_ctrls.wrQLenPdf::50                      0                       # What write queue length does an incoming req see
system.mem_ctrls.wrQLenPdf::51                      0                       # What write queue length does an incoming req see
system.mem_ctrls.wrQLenPdf::52                      0                       # What write queue length does an incoming req see
system.mem_ctrls.wrQLenPdf::53                      0                       # What write queue length does an incoming req see
system.mem_ctrls.wrQLenPdf::54                      0                       # What write queue length does an incoming req see
system.mem_ctrls.wrQLenPdf::55                      0                       # What write queue length does an incoming req see
system.mem_ctrls.wrQLenPdf::56                      0                       # What write queue length does an incoming req see
system.mem_ctrls.wrQLenPdf::57                      0                       # What write queue length does an incoming req see
system.mem_ctrls.wrQLenPdf::58                      0                       # What write queue length does an incoming req see
system.mem_ctrls.wrQLenPdf::59                      0                       # What write queue length does an incoming req see
system.mem_ctrls.wrQLenPdf::60                      0                       # What write queue length does an incoming req see
system.mem_ctrls.wrQLenPdf::61                      0                       # What write queue length does an incoming req see
system.mem_ctrls.wrQLenPdf::62                      0                       # What write queue length does an incoming req see
system.mem_ctrls.wrQLenPdf::63                      0                       # What write queue length does an incoming req see
system.mem_ctrls.rdPerTurnAround::samples           17                       # Reads before turning the bus around for writes
system.mem_ctrls.rdPerTurnAround::mean     757.941176                       # Reads before turning the bus around for writes
system.mem_ctrls.rdPerTurnAround::gmean     87.424124                       # Reads before turning the bus around for writes
system.mem_ctrls.rdPerTurnAround::stdev   2512.815713                       # Reads before turning the bus around for writes
system.mem_ctrls.rdPerTurnAround::0-511            15     88.24%     88.24% # Reads before turning the bus around for writes
system.mem_ctrls.rdPerTurnAround::1024-1535            1      5.88%     94.12% # Reads before turning the bus around for writes
system.mem_ctrls.rdPerTurnAround::10240-10751            1      5.88%    100.00% # Reads before turning the bus around for writes
system.mem_ctrls.rdPerTurnAround::total            17                       # Reads before turning the bus around for writes
system.mem_ctrls.wrPerTurnAround::samples           17                       # Writes before turning the bus around for reads
system.mem_ctrls.wrPerTurnAround::mean      16.705882                       # Writes before turning the bus around for reads
system.mem_ctrls.wrPerTurnAround::gmean     16.679146                       # Writes before turning the bus around for reads
system.mem_ctrls.wrPerTurnAround::stdev      0.985184                       # Writes before turning the bus around for reads
system.mem_ctrls.wrPerTurnAround::16               11     64.71%     64.71% # Writes before turning the bus around for reads
system.mem_ctrls.wrPerTurnAround::18                6     35.29%    100.00% # Writes before turning the bus around for reads
system.mem_ctrls.wrPerTurnAround::total            17                       # Writes before turning the bus around for reads
system.mem_ctrls.bytesReadWrQ                     512                       # Total number of bytes read from write queue
system.mem_ctrls.bytesReadSys                  989120                       # Total read bytes from the system interface side
system.mem_ctrls.bytesWrittenSys                20160                       # Total written bytes from the system interface side
system.mem_ctrls.avgRdBWSys                     17.95                       # Average system read bandwidth in MiByte/s
system.mem_ctrls.avgWrBWSys                      0.37                       # Average system write bandwidth in MiByte/s
system.mem_ctrls.totGap                   55090608500                       # Total gap between requests
system.mem_ctrls.avgGap                    3493380.37                       # Average gap between requests
system.mem_ctrls.requestorReadBytes::.cpu.inst       128256                       # Per-requestor bytes read from memory
system.mem_ctrls.requestorReadBytes::.cpu.data       860352                       # Per-requestor bytes read from memory
system.mem_ctrls.requestorWriteBytes::.writebacks        18176                       # Per-requestor bytes write to memory
[...]
system.mem_ctrls.dram.bw_total::.cpu.data     15626308                       # Total bandwidth to/from this memory (bytes/s)
system.mem_ctrls.dram.bw_total::total        18320339                       # Total bandwidth to/from this memory (bytes/s)
system.mem_ctrls.dram.readBursts                15447                       # Number of DRAM read bursts
system.mem_ctrls.dram.writeBursts                 284                       # Number of DRAM write bursts
system.mem_ctrls.dram.perBankRdBursts::0         1310                       # Per bank write bursts
system.mem_ctrls.dram.perBankRdBursts::1         1025                       # Per bank write bursts
system.mem_ctrls.dram.perBankRdBursts::2         1031                       # Per bank write bursts
system.mem_ctrls.dram.perBankRdBursts::3          883                       # Per bank write bursts
system.mem_ctrls.dram.perBankRdBursts::4         1142                       # Per bank write bursts
system.mem_ctrls.dram.perBankRdBursts::5          954                       # Per bank write bursts
system.mem_ctrls.dram.perBankRdBursts::6         1097                       # Per bank write bursts
system.mem_ctrls.dram.perBankRdBursts::7          894                       # Per bank write bursts
system.mem_ctrls.dram.perBankRdBursts::8          769                       # Per bank write bursts
system.mem_ctrls.dram.perBankRdBursts::9          752                       # Per bank write bursts
system.mem_ctrls.dram.perBankRdBursts::10          772                       # Per bank write bursts
system.mem_ctrls.dram.perBankRdBursts::11          974                       # Per bank write bursts
system.mem_ctrls.dram.perBankRdBursts::12          872                       # Per bank write bursts
system.mem_ctrls.dram.perBankRdBursts::13          969                       # Per bank write bursts
system.mem_ctrls.dram.perBankRdBursts::14          925                       # Per bank write bursts
system.mem_ctrls.dram.perBankRdBursts::15         1078                       # Per bank write bursts
system.mem_ctrls.dram.perBankWrBursts::0           94                       # Per bank write bursts
system.mem_ctrls.dram.perBankWrBursts::1           46                       # Per bank write bursts
system.mem_ctrls.dram.perBankWrBursts::2           50                       # Per bank write bursts
system.mem_ctrls.dram.perBankWrBursts::3            0                       # Per bank write bursts
system.mem_ctrls.dram.perBankWrBursts::4           28                       # Per bank write bursts
system.mem_ctrls.dram.perBankWrBursts::5           13                       # Per bank write bursts
system.mem_ctrls.dram.perBankWrBursts::6            4                       # Per bank write bursts
system.mem_ctrls.dram.perBankWrBursts::7            0                       # Per bank write bursts
system.mem_ctrls.dram.perBankWrBursts::8            0                       # Per bank write bursts
system.mem_ctrls.dram.perBankWrBursts::9            0                       # Per bank write bursts
system.mem_ctrls.dram.perBankWrBursts::10            1                       # Per bank write bursts
system.mem_ctrls.dram.perBankWrBursts::11            5                       # Per bank write bursts
system.mem_ctrls.dram.perBankWrBursts::12            3                       # Per bank write bursts
system.mem_ctrls.dram.perBankWrBursts::13            4                       # Per bank write bursts
system.mem_ctrls.dram.perBankWrBursts::14            2                       # Per bank write bursts
system.mem_ctrls.dram.perBankWrBursts::15           34                       # Per bank write bursts
system.mem_ctrls.dram.totQLat               144592500                       # Total ticks spent queuing
system.mem_ctrls.dram.totBusLat              77235000                       # Total ticks spent in databus transfers
system.mem_ctrls.dram.totMemAccLat          434223750                       # Total ticks spent from burst creation until serviced by the DRAM
system.mem_ctrls.dram.avgQLat                 9360.56                       # Average queueing delay per DRAM burst
system.mem_ctrls.dram.avgBusLat               5000.00                       # Average bus latency per DRAM burst
system.mem_ctrls.dram.avgMemAccLat           28110.56                       # Average memory access latency per DRAM burst
system.mem_ctrls.dram.readRowHits               10321                       # Number of row buffer hits during reads
system.mem_ctrls.dram.writeRowHits                241                       # Number of row buffer hits during writes
system.mem_ctrls.dram.readRowHitRate            66.82                       # Row buffer hit rate for reads
system.mem_ctrls.dram.writeRowHitRate           84.86                       # Row buffer hit rate for writes
system.mem_ctrls.dram.bytesPerActivate::samples         5163                       # Bytes accessed per row activation
system.mem_ctrls.dram.bytesPerActivate::mean   194.677513                       # Bytes accessed per row activation
system.mem_ctrls.dram.bytesPerActivate::gmean   122.000734                       # Bytes accessed per row activation
system.mem_ctrls.dram.bytesPerActivate::stdev   246.372977                       # Bytes accessed per row activation
system.mem_ctrls.dram.bytesPerActivate::0-127         2767     53.59%     53.59% # Bytes accessed per row activation
system.mem_ctrls.dram.bytesPerActivate::128-255         1309     25.35%     78.95% # Bytes accessed per row activation
system.mem_ctrls.dram.bytesPerActivate::256-383          396      7.67%     86.62% # Bytes accessed per row activation
system.mem_ctrls.dram.bytesPerActivate::384-511          159      3.08%     89.70% # Bytes accessed per row activation
system.mem_ctrls.dram.bytesPerActivate::512-639           75      1.45%     91.15% # Bytes accessed per row activation
system.mem_ctrls.dram.bytesPerActivate::640-767           87      1.69%     92.83% # Bytes accessed per row activation
system.mem_ctrls.dram.bytesPerActivate::768-895           76      1.47%     94.31% # Bytes accessed per row activation
system.mem_ctrls.dram.bytesPerActivate::896-1023           45      0.87%     95.18% # Bytes accessed per row activation
system.mem_ctrls.dram.bytesPerActivate::1024-1151          249      4.82%    100.00% # Bytes accessed per row activation
system.mem_ctrls.dram.bytesPerActivate::total         5163                       # Bytes accessed per row activation
system.mem_ctrls.dram.bytesRead                988608                       # Total number of bytes read from DRAM
system.mem_ctrls.dram.bytesWritten              18176                       # Total number of bytes written to DRAM
system.mem_ctrls.dram.avgRdBW               17.945104                       # Average DRAM read bandwidth in MiBytes/s
system.mem_ctrls.dram.avgWrBW                0.329929                       # Average DRAM write bandwidth in MiBytes/s
system.mem_ctrls.dram.peakBW                 12800.00                       # Theoretical peak bandwidth in MiByte/s
system.mem_ctrls.dram.busUtil                    0.14                       # Data bus utilization in percentage
system.mem_ctrls.dram.busUtilRead                0.14                       # Data bus utilization in percentage for reads
system.mem_ctrls.dram.busUtilWrite               0.00                       # Data bus utilization in percentage for writes
system.mem_ctrls.dram.pageHitRate               67.14                       # Row buffer hit rate, read and write combined
system.mem_ctrls.dram.power_state.pwrStateResidencyTicks::UNDEFINED  55090682500                       # Cumulative time (in ticks) in various power states
system.mem_ctrls.dram.rank0.actEnergy        19635000                       # Energy for activate commands per rank (pJ)
system.mem_ctrls.dram.rank0.preEnergy        10424865                       # Energy for precharge commands per rank (pJ)
system.mem_ctrls.dram.rank0.readEnergy       59519040                       # Energy for read commands per rank (pJ)
system.mem_ctrls.dram.rank0.writeEnergy       1226700                       # Energy for write commands per rank (pJ)
system.mem_ctrls.dram.rank0.refreshEnergy 4348578000.000001                       # Energy for refresh commands per rank (pJ)
system.mem_ctrls.dram.rank0.actBackEnergy   2912489670                       # Energy for active background per rank (pJ)
system.mem_ctrls.dram.rank0.preBackEnergy  18702199200                       # Energy for precharge background per rank (pJ)
system.mem_ctrls.dram.rank0.actPowerDownEnergy            0                       # Energy for active power-down per rank (pJ)
system.mem_ctrls.dram.rank0.prePowerDownEnergy            0                       # Energy for precharge power-down per rank (pJ)
system.mem_ctrls.dram.rank0.selfRefreshEnergy            0                       # Energy for self refresh per rank (pJ)
system.mem_ctrls.dram.rank0.totalEnergy   26054072475                       # Total energy per rank (pJ)
system.mem_ctrls.dram.rank0.averagePower   472.930653                       # Core power per rank (mW)
system.mem_ctrls.dram.rank0.totalIdleTime            0                       # Total Idle time Per DRAM Rank
system.mem_ctrls.dram.rank0.pwrStateTime::IDLE  48594524750                       # Time in different power states
system.mem_ctrls.dram.rank0.pwrStateTime::REF   1839500000                       # Time in different power states
system.mem_ctrls.dram.rank0.pwrStateTime::SREF            0                       # Time in different power states
system.mem_ctrls.dram.rank0.pwrStateTime::PRE_PDN            0                       # Time in different power states
system.mem_ctrls.dram.rank0.pwrStateTime::ACT   4656657750                       # Time in different power states
system.mem_ctrls.dram.rank0.pwrStateTime::ACT_PDN            0                       # Time in different power states
system.mem_ctrls.dram.rank1.actEnergy        17271660                       # Energy for activate commands per rank (pJ)
system.mem_ctrls.dram.rank1.preEnergy         9168720                       # Energy for precharge commands per rank (pJ)
system.mem_ctrls.dram.rank1.readEnergy       50772540                       # Energy for read commands per rank (pJ)
system.mem_ctrls.dram.rank1.writeEnergy        255780                       # Energy for write commands per rank (pJ)
system.mem_ctrls.dram.rank1.refreshEnergy 4348578000.000001                       # Energy for refresh commands per rank (pJ)
system.mem_ctrls.dram.rank1.actBackEnergy   2653807140                       # Energy for active background per rank (pJ)
system.mem_ctrls.dram.rank1.preBackEnergy  18920037120                       # Energy for precharge background per rank (pJ)
system.mem_ctrls.dram.rank1.actPowerDownEnergy            0                       # Energy for active power-down per rank (pJ)
system.mem_ctrls.dram.rank1.prePowerDownEnergy            0                       # Energy for precharge power-down per rank (pJ)
system.mem_ctrls.dram.rank1.selfRefreshEnergy            0                       # Energy for self refresh per rank (pJ)
system.mem_ctrls.dram.rank1.totalEnergy   25999890960                       # Total energy per rank (pJ)
system.mem_ctrls.dram.rank1.averagePower   471.947157                       # Core power per rank (mW)
system.mem_ctrls.dram.rank1.totalIdleTime            0                       # Total Idle time Per DRAM Rank
system.mem_ctrls.dram.rank1.pwrStateTime::IDLE  49161833750                       # Time in different power states
system.mem_ctrls.dram.rank1.pwrStateTime::REF   1839500000                       # Time in different power states
system.mem_ctrls.dram.rank1.pwrStateTime::SREF            0                       # Time in different power states
system.mem_ctrls.dram.rank1.pwrStateTime::PRE_PDN            0                       # Time in different power states
system.mem_ctrls.dram.rank1.pwrStateTime::ACT   4089348750                       # Time in different power states
system.mem_ctrls.dram.rank1.pwrStateTime::ACT_PDN            0                       # Time in different power states
system.mem_ctrls.power_state.pwrStateResidencyTicks::UNDEFINED  55090682500                       # Cumulative time (in ticks) in various power states
system.membus.trans_dist::ReadResp              10319                       # Transaction distribution
system.membus.trans_dist::WritebackDirty          315                       # Transaction distribution
system.membus.trans_dist::CleanEvict             1629                       # Transaction distribution
system.membus.trans_dist::ReadExReq              5136                       # Transaction distribution
system.membus.trans_dist::ReadExResp             5136                       # Transaction distribution
system.membus.trans_dist::ReadSharedReq         10319                       # Transaction distribution
system.membus.pkt_count_system.l2.mem_side_port::system.mem_ctrls.port        32854                       # Packet count per connected requestor and responder (bytes)
system.membus.pkt_count_system.l2.mem_side_port::total        32854                       # Packet count per connected requestor and responder (bytes)
system.membus.pkt_count::total                  32854                       # Packet count per connected requestor and responder (bytes)
system.membus.pkt_size_system.l2.mem_side_port::system.mem_ctrls.port      1009280                       # Cumulative packet size per connected requestor and responder (bytes)
system.membus.pkt_size_system.l2.mem_side_port::total      1009280                       # Cumulative packet size per connected requestor and responder (bytes)
system.membus.pkt_size::total                 1009280                       # Cumulative packet size per connected requestor and responder (bytes)
system.membus.snoops                                0                       # Total snoops (count)
system.membus.snoopTraffic                          0                       # Total snoop traffic (bytes)
system.membus.snoop_fanout::samples             15455                       # Request fanout histogram
system.membus.snoop_fanout::mean                    0                       # Request fanout histogram
system.membus.snoop_fanout::stdev                   0                       # Request fanout histogram
system.membus.snoop_fanout::underflows              0      0.00%      0.00% # Request fanout histogram
system.membus.snoop_fanout::0                   15455    100.00%    100.00% # Request fanout histogram
system.membus.snoop_fanout::1                       0      0.00%    100.00% # Request fanout histogram
system.membus.snoop_fanout::overflows               0      0.00%    100.00% # Request fanout histogram
system.membus.snoop_fanout::min_value               0                       # Request fanout histogram
system.membus.snoop_fanout::max_value               0                       # Request fanout histogram
system.membus.snoop_fanout::total               15455                       # Request fanout histogram
system.membus.power_state.pwrStateResidencyTicks::UNDEFINED  55090682500                       # Cumulative time (in ticks) in various power states
system.membus.reqLayer2.occupancy            18669000                       # Layer occupancy (ticks)
system.membus.reqLayer2.utilization               0.0                       # Layer utilization (%)
system.membus.respLayer1.occupancy           82629250                       # Layer occupancy (ticks)
system.membus.respLayer1.utilization              0.1                       # Layer utilization (%)
system.tol2bus.trans_dist::ReadResp             10773                       # Transaction distribution
system.tol2bus.trans_dist::WritebackDirty         1668                       # Transaction distribution
system.tol2bus.trans_dist::WritebackClean          144                       # Transaction distribution
system.tol2bus.trans_dist::CleanEvict            8223                       # Transaction distribution
system.tol2bus.trans_dist::ReadExReq             5243                       # Transaction distribution
system.tol2bus.trans_dist::ReadExResp            5243                       # Transaction distribution
system.tol2bus.trans_dist::ReadCleanReq          2014                       # Transaction distribution
system.tol2bus.trans_dist::ReadSharedReq         8759                       # Transaction distribution
system.tol2bus.pkt_count_system.cpu.icache.mem_side_port::system.l2.cpu_side_port         4172                       # Packet count per connected requestor and responder (bytes)
system.tol2bus.pkt_count_system.cpu.dcache.mem_side_port::system.l2.cpu_side_port        34012                       # Packet count per connected requestor and responder (bytes)
system.tol2bus.pkt_count::total                 38184                       # Packet count per connected requestor and responder (bytes)
system.tol2bus.pkt_size_system.cpu.icache.mem_side_port::system.l2.cpu_side_port       138112                       # Cumulative packet size per connected requestor and responder (bytes)
system.tol2bus.pkt_size_system.cpu.dcache.mem_side_port::system.l2.cpu_side_port       982720                       # Cumulative packet size per connected requestor and responder (bytes)
system.tol2bus.pkt_size::total                1120832                       # Cumulative packet size per connected requestor and responder (bytes)
system.tol2bus.snoops                            3883                       # Total snoops (count)
system.tol2bus.snoopTraffic                     20160                       # Total snoop traffic (bytes)
system.tol2bus.snoop_fanout::samples            19899                       # Request fanout histogram
system.tol2bus.snoop_fanout::mean            0.145635                       # Request fanout histogram
system.tol2bus.snoop_fanout::stdev           0.352749                       # Request fanout histogram
system.tol2bus.snoop_fanout::underflows             0      0.00%      0.00% # Request fanout histogram
system.tol2bus.snoop_fanout::0                  17001     85.44%     85.44% # Request fanout histogram
system.tol2bus.snoop_fanout::1                   2898     14.56%    100.00% # Request fanout histogram
system.tol2bus.snoop_fanout::2                      0      0.00%    100.00% # Request fanout histogram
system.tol2bus.snoop_fanout::3                      0      0.00%    100.00% # Request fanout histogram
system.tol2bus.snoop_fanout::4                      0      0.00%    100.00% # Request fanout histogram
system.tol2bus.snoop_fanout::overflows              0      0.00%    100.00% # Request fanout histogram
system.tol2bus.snoop_fanout::min_value              0                       # Request fanout histogram
system.tol2bus.snoop_fanout::max_value              1                       # Request fanout histogram
system.tol2bus.snoop_fanout::total              19899                       # Request fanout histogram
system.tol2bus.power_state.pwrStateResidencyTicks::UNDEFINED  55090682500                       # Cumulative time (in ticks) in various power states
system.tol2bus.reqLayer0.occupancy           12581000                       # Layer occupancy (ticks)
system.tol2bus.reqLayer0.utilization              0.0                       # Layer utilization (%)
system.tol2bus.respLayer0.occupancy           3021000                       # Layer occupancy (ticks)
system.tol2bus.respLayer0.utilization             0.0                       # Layer utilization (%)
system.tol2bus.respLayer1.occupancy          21003000                       # Layer occupancy (ticks)
system.tol2bus.respLayer1.utilization             0.0                       # Layer utilization (%)
system.voltage_domain.voltage                       1                       # Voltage in Volts

---------- End Simulation Statistics   ----------
