
---------- Begin Simulation Statistics ----------
final_tick                                 4607486500                       # Number of ticks from beginning of simulation (restored from checkpoints and never reset)
host_inst_rate                                 733439                       # Simulator instruction rate (inst/s)
host_mem_usage                                 712720                       # Number of bytes of host memory used
host_op_rate                                  1282260                       # Simulator op (including micro ops) rate (op/s)
host_seconds                                     2.99                       # Real time elapsed on the host
host_tick_rate                             1541465258                       # Simulator tick rate (ticks/s)
sim_freq                                 1000000000000                       # Frequency of simulated ticks
sim_insts                                     2192201                       # Number of instructions simulated
sim_ops                                       3832693                       # Number of ops (including micro ops) simulated
sim_seconds                                  0.004607                       # Number of seconds simulated
sim_ticks                                  4607486500                       # Number of ticks simulated
system.cpu.Branches                            361113                       # Number of branches fetched
system.cpu.committedInsts                     2192201                       # Number of instructions committed
system.cpu.committedOps                       3832693                       # Number of ops (including micro ops) committed
system.cpu.idle_fraction                     0.000000                       # Percentage of idle cycles
system.cpu.not_idle_fraction                 1.000000                       # Percentage of non-idle cycles
system.cpu.numCycles                          9214973                       # number of cpu cycles simulated
system.cpu.numWorkItemsCompleted                    0                       # number of work items this cpu completed
system.cpu.numWorkItemsStarted                      0                       # number of work items this cpu started
system.cpu.num_busy_cycles               9214972.998000                       # Number of busy cycles
system.cpu.num_cc_register_reads              2261882                       # number of times the CC registers were read
system.cpu.num_cc_register_writes             1812913                       # number of times the CC registers were written
system.cpu.num_conditional_control_insts       316005                       # number of instructions that are conditional controls
system.cpu.num_fp_alu_accesses                  86161                       # Number of float alu accesses
system.cpu.num_fp_insts                         86161                       # number of float instructions
system.cpu.num_fp_register_reads               120126                       # number of times the floating registers were read
system.cpu.num_fp_register_writes               63955                       # number of times the floating registers were written
system.cpu.num_func_calls                       23109                       # number of times a function call or return occured
system.cpu.num_idle_cycles                   0.002000                       # Number of idle cycles
system.cpu.num_int_alu_accesses               3762954                       # Number of integer alu accesses
system.cpu.num_int_insts                      3762954                       # number of integer instructions
system.cpu.num_int_register_reads             7557115                       # number of times the integer registers were read
system.cpu.num_int_register_writes            3265163                       # number of times the integer registers were written
system.cpu.num_load_insts                      516260                       # Number of load instructions
system.cpu.num_mem_refs                        713590                       # number of memory refs
system.cpu.num_store_insts                     197330                       # Number of store instructions
system.cpu.num_vec_alu_accesses                     0                       # Number of vector alu accesses
system.cpu.num_vec_insts                            0                       # number of vector instructions
system.cpu.num_vec_register_reads                   0                       # number of times the vector registers were read
system.cpu.num_vec_register_writes                  0                       # number of times the vector registers were written
system.cpu.op_class::No_OpClass                 25360      0.66%      0.66% # Class of executed instruction
system.cpu.op_class::IntAlu                   3005091     78.40%     79.06% # Class of executed instruction
system.cpu.op_class::IntMult                       34      0.00%     79.06% # Class of executed instruction
system.cpu.op_class::IntDiv                     36414      0.95%     80.01% # Class of executed instruction
system.cpu.op_class::FloatAdd                    5605      0.15%     80.16% # Class of executed instruction
system.cpu.op_class::FloatCmp                       0      0.00%     80.16% # Class of executed instruction
system.cpu.op_class::FloatCvt                    1376      0.04%     80.20% # Class of executed instruction
system.cpu.op_class::FloatMult                      0      0.00%     80.20% # Class of executed instruction
system.cpu.op_class::FloatMultAcc                   0      0.00%     80.20% # Class of executed instruction
system.cpu.op_class::FloatDiv                       0      0.00%     80.20% # Class of executed instruction
system.cpu.op_class::FloatMisc                      0      0.00%     80.20% # Class of executed instruction
system.cpu.op_class::FloatSqrt                      0      0.00%     80.20% # Class of executed instruction
system.cpu.op_class::SimdAdd                     6764      0.18%     80.37% # Class of executed instruction
system.cpu.op_class::SimdAddAcc                     0      0.00%     80.37% # Class of executed instruction
system.cpu.op_class::SimdAlu                    12194      0.32%     80.69% # Class of executed instruction
system.cpu.op_class::SimdCmp                        0      0.00%     80.69% # Class of executed instruction
system.cpu.op_class::SimdCvt                    13904      0.36%     81.05% # Class of executed instruction
system.cpu.op_class::SimdMisc                   12185      0.32%     81.37% # Class of executed instruction
system.cpu.op_class::SimdMult                       0      0.00%     81.37% # Class of executed instruction
system.cpu.op_class::SimdMultAcc                    0      0.00%     81.37% # Class of executed instruction
system.cpu.op_class::SimdShift                    483      0.01%     81.38% # Class of executed instruction
system.cpu.op_class::SimdShiftAcc                   0      0.00%     81.38% # Class of executed instruction
system.cpu.op_class::SimdDiv                        0      0.00%     81.38% # Class of executed instruction
system.cpu.op_class::SimdSqrt                       0      0.00%     81.38% # Class of executed instruction
system.cpu.op_class::SimdFloatAdd                   0      0.00%     81.38% # Class of executed instruction
system.cpu.op_class::SimdFloatAlu                   0      0.00%     81.38% # Class of executed instruction
system.cpu.op_class::SimdFloatCmp                   0      0.00%     81.38% # Class of executed instruction
system.cpu.op_class::SimdFloatCvt                   0      0.00%     81.38% # Class of executed instruction
system.cpu.op_class::SimdFloatDiv                   0      0.00%     81.38% # Class of executed instruction
system.cpu.op_class::SimdFloatMisc                  0      0.00%     81.38% # Class of executed instruction
system.cpu.op_class::SimdFloatMult                  0      0.00%     81.38% # Class of executed instruction
system.cpu.op_class::SimdFloatMultAcc               0      0.00%     81.38% # Class of executed instruction
system.cpu.op_class::SimdFloatSqrt                  0      0.00%     81.38% # Class of executed instruction
system.cpu.op_class::SimdReduceAdd                  0      0.00%     81.38% # Class of executed instruction
system.cpu.op_class::SimdReduceAlu                  0      0.00%     81.38% # Class of executed instruction
system.cpu.op_class::SimdReduceCmp                  0      0.00%     81.38% # Class of executed instruction
system.cpu.op_class::SimdFloatReduceAdd             0      0.00%     81.38% # Class of executed instruction
system.cpu.op_class::SimdFloatReduceCmp             0      0.00%     81.38% # Class of executed instruction
system.cpu.op_class::SimdAes                        0      0.00%     81.38% # Class of executed instruction
system.cpu.op_class::SimdAesMix                     0      0.00%     81.38% # Class of executed instruction
system.cpu.op_class::SimdSha1Hash                   0      0.00%     81.38% # Class of executed instruction
system.cpu.op_class::SimdSha1Hash2                  0      0.00%     81.38% # Class of executed instruction
system.cpu.op_class::SimdSha256Hash                 0      0.00%     81.38% # Class of executed instruction
system.cpu.op_class::SimdSha256Hash2                0      0.00%     81.38% # Class of executed instruction
system.cpu.op_class::SimdShaSigma2                  0      0.00%     81.38% # Class of executed instruction
system.cpu.op_class::SimdShaSigma3                  0      0.00%     81.38% # Class of executed instruction
system.cpu.op_class::SimdPredAlu                    0      0.00%     81.38% # Class of executed instruction
system.cpu.op_class::MemRead                   498939     13.02%     94.40% # Class of executed instruction
system.cpu.op_class::MemWrite                  183645      4.79%     99.19% # Class of executed instruction
system.cpu.op_class::FloatMemRead               17321      0.45%     99.64% # Class of executed instruction
system.cpu.op_class::FloatMemWrite              13685      0.36%    100.00% # Class of executed instruction
system.cpu.op_class::IprAccess                      0      0.00%    100.00% # Class of executed instruction
system.cpu.op_class::InstPrefetch                   0      0.00%    100.00% # Class of executed instruction
system.cpu.op_class::total                    3833000                       # Class of executed instruction
system.cpu.workload.numSyscalls                    72                       # Number of system calls
system.membus.snoop_filter.hit_multi_requests            0                       # Number of requests hitting in the snoop filter with multiple (>1) holders of the requested data.
system.membus.snoop_filter.hit_multi_snoops            0                       # Number of snoops hitting in the snoop filter with multiple (>1) holders of the requested data.
system.membus.snoop_filter.hit_single_requests          645                       # Number of requests hitting in the snoop filter with a single holder of the requested data.
system.membus.snoop_filter.hit_single_snoops            0                       # Number of snoops hitting in the snoop filter with a single holder of the requested data.
system.membus.snoop_filter.tot_requests         12245                       # Total number of requests made to the snoop filter.
system.membus.snoop_filter.tot_snoops               0                       # Total number of snoops made to the snoop filter.
system.tol2bus.snoop_filter.hit_multi_requests            0                       # Number of requests hitting in the snoop filter with multiple (>1) holders of the requested data.
system.tol2bus.snoop_filter.hit_multi_snoops            0                       # Number of snoops hitting in the snoop filter with multiple (>1) holders of the requested data.
system.tol2bus.snoop_filter.hit_single_requests        11156                       # Number of requests hitting in the snoop filter with a single holder of the requested data.
system.tol2bus.snoop_filter.hit_single_snoops          624                       # Number of snoops hitting in the snoop filter with a single holder of the requested data.
system.tol2bus.snoop_filter.tot_requests        26054                       # Total number of requests made to the snoop filter.
system.tol2bus.snoop_filter.tot_snoops            624                       # Total number of snoops made to the snoop filter.
system.clk_domain.clock                          1000                       # Clock period in ticks
system.cpu.dcache.demand_hits::.cpu.data       700248                       # number of demand (read+write) hits
system.cpu.dcache.demand_hits::total           700248                       # number of demand (read+write) hits
system.cpu.dcache.overall_hits::.cpu.data       700248                       # number of overall hits
system.cpu.dcache.overall_hits::total          700248                       # number of overall hits
system.cpu.dcache.demand_misses::.cpu.data        13142                       # number of demand (read+write) misses
system.cpu.dcache.demand_misses::total          13142                       # number of demand (read+write) misses
system.cpu.dcache.overall_misses::.cpu.data        13142                       # number of overall misses
system.cpu.dcache.overall_misses::total         13142                       # number of overall misses
system.cpu.dcache.demand_miss_latency::.cpu.data    864087000                       # number of demand (read+write) miss cycles
system.cpu.dcache.demand_miss_latency::total    864087000                       # number of demand (read+write) miss cycles
system.cpu.dcache.overall_miss_latency::.cpu.data    864087000                       # number of overall miss cycles
system.cpu.dcache.overall_miss_latency::total    864087000                       # number of overall miss cycles
system.cpu.dcache.demand_accesses::.cpu.data       713390                       # number of demand (read+write) accesses
system.cpu.dcache.demand_accesses::total       713390                       # number of demand (read+write) accesses
system.cpu.dcache.overall_accesses::.cpu.data       713390                       # number of overall (read+write) accesses
system.cpu.dcache.overall_accesses::total       713390                       # number of overall (read+write) accesses
system.cpu.dcache.demand_miss_rate::.cpu.data     0.018422                       # miss rate for demand accesses
system.cpu.dcache.demand_miss_rate::total     0.018422                       # miss rate for demand accesses
system.cpu.dcache.overall_miss_rate::.cpu.data     0.018422                       # miss rate for overall accesses
system.cpu.dcache.overall_miss_rate::total     0.018422                       # miss rate for overall accesses
system.cpu.dcache.demand_avg_miss_latency::.cpu.data 65750.038046                       # average overall miss latency
system.cpu.dcache.demand_avg_miss_latency::total 65750.038046                       # average overall miss latency
system.cpu.dcache.overall_avg_miss_latency::.cpu.data 65750.038046                       # average overall miss latency
system.cpu.dcache.overall_avg_miss_latency::total 65750.038046                       # average overall miss latency
system.cpu.dcache.blocked_cycles::no_mshrs            0                       # number of cycles access was blocked
system.cpu.dcache.blocked_cycles::no_targets            0                       # number of cycles access was blocked
system.cpu.dcache.blocked::no_mshrs                 0                       # number of cycles access was blocked
system.cpu.dcache.blocked::no_targets               0                       # number of cycles access was blocked
system.cpu.dcache.avg_blocked_cycles::no_mshrs          nan                       # average number of cycles each access was blocked
system.cpu.dcache.avg_blocked_cycles::no_targets          nan                       # average number of cycles each access was blocked
system.cpu.dcache.writebacks::.writebacks         2145                       # number of writebacks
system.cpu.dcache.writebacks::total              2145                       # number of writebacks
system.cpu.dcache.demand_mshr_misses::.cpu.data        13142                       # number of demand (read+write) MSHR misses
system.cpu.dcache.demand_mshr_misses::total        13142                       # number of demand (read+write) MSHR misses
system.cpu.dcache.overall_mshr_misses::.cpu.data        13142                       # number of overall MSHR misses
system.cpu.dcache.overall_mshr_misses::total        13142                       # number of overall MSHR misses
system.cpu.dcache.demand_mshr_miss_latency::.cpu.data    850945000                       # number of demand (read+write) MSHR miss cycles
system.cpu.dcache.demand_mshr_miss_latency::total    850945000                       # number of demand (read+write) MSHR miss cycles
system.cpu.dcache.overall_mshr_miss_latency::.cpu.data    850945000                       # number of overall MSHR miss cycles
system.cpu.dcache.overall_mshr_miss_latency::total    850945000                       # number of overall MSHR miss cycles
system.cpu.dcache.demand_mshr_miss_rate::.cpu.data     0.018422                       # mshr miss rate for demand accesses
system.cpu.dcache.demand_mshr_miss_rate::total     0.018422                       # mshr miss rate for demand accesses
system.cpu.dcache.overall_mshr_miss_rate::.cpu.data     0.018422                       # mshr miss rate for overall accesses
system.cpu.dcache.overall_mshr_miss_rate::total     0.018422                       # mshr miss rate for overall accesses
system.cpu.dcache.demand_avg_mshr_miss_latency::.cpu.data 64750.038046                       # average overall mshr miss latency
system.cpu.dcache.demand_avg_mshr_miss_latency::total 64750.038046                       # average overall mshr miss latency
system.cpu.dcache.overall_avg_mshr_miss_latency::.cpu.data 64750.038046                       # average overall mshr miss latency
system.cpu.dcache.overall_avg_mshr_miss_latency::total 64750.038046                       # average overall mshr miss latency
system.cpu.dcache.replacements                  11094                       # number of replacements
system.cpu.dcache.ReadReq_hits::.cpu.data       504851                       # number of ReadReq hits
system.cpu.dcache.ReadReq_hits::total          504851                       # number of ReadReq hits
system.cpu.dcache.ReadReq_misses::.cpu.data        11228                       # number of ReadReq misses
system.cpu.dcache.ReadReq_misses::total         11228                       # number of ReadReq misses
system.cpu.dcache.ReadReq_miss_latency::.cpu.data    737025000                       # number of ReadReq miss cycles
system.cpu.dcache.ReadReq_miss_latency::total    737025000                       # number of ReadReq miss cycles
system.cpu.dcache.ReadReq_accesses::.cpu.data       516079                       # number of ReadReq accesses(hits+misses)
system.cpu.dcache.ReadReq_accesses::total       516079                       # number of ReadReq accesses(hits+misses)
system.cpu.dcache.ReadReq_miss_rate::.cpu.data     0.021756                       # miss rate for ReadReq accesses
system.cpu.dcache.ReadReq_miss_rate::total     0.021756                       # miss rate for ReadReq accesses
system.cpu.dcache.ReadReq_avg_miss_latency::.cpu.data 65641.699323                       # average ReadReq miss latency
system.cpu.dcache.ReadReq_avg_miss_latency::total 65641.699323                       # average ReadReq miss latency
system.cpu.dcache.ReadReq_mshr_misses::.cpu.data        11228                       # number of ReadReq MSHR misses
system.cpu.dcache.ReadReq_mshr_misses::total        11228                       # number of ReadReq MSHR misses
system.cpu.dcache.ReadReq_mshr_miss_latency::.cpu.data    725797000                       # number of ReadReq MSHR miss cycles
system.cpu.dcache.ReadReq_mshr_miss_latency::total    725797000                       # number of ReadReq MSHR miss cycles
system.cpu.dcache.ReadReq_mshr_miss_rate::.cpu.data     0.021756                       # mshr miss rate for ReadReq accesses
system.cpu.dcache.ReadReq_mshr_miss_rate::total     0.021756                       # mshr miss rate for ReadReq accesses
system.cpu.dcache.ReadReq_avg_mshr_miss_latency::.cpu.data 64641.699323                       # average ReadReq mshr miss latency
system.cpu.dcache.ReadReq_avg_mshr_miss_latency::total 64641.699323                       # average ReadReq mshr miss latency
system.cpu.dcache.WriteReq_hits::.cpu.data       195397                       # number of WriteReq hits
system.cpu.dcache.WriteReq_hits::total         195397                       # number of WriteReq hits
system.cpu.dcache.WriteReq_misses::.cpu.data         1914                       # number of WriteReq misses
system.cpu.dcache.WriteReq_misses::total         1914                       # number of WriteReq misses
system.cpu.dcache.WriteReq_miss_latency::.cpu.data    127062000                       # number of WriteReq miss cycles
system.cpu.dcache.WriteReq_miss_latency::total    127062000                       # number of WriteReq miss cycles
system.cpu.dcache.WriteReq_accesses::.cpu.data       197311                       # number of WriteReq accesses(hits+misses)
system.cpu.dcache.WriteReq_accesses::total       197311                       # number of WriteReq accesses(hits+misses)
system.cpu.dcache.WriteReq_miss_rate::.cpu.data     0.009700                       # miss rate for WriteReq accesses
system.cpu.dcache.WriteReq_miss_rate::total     0.009700                       # miss rate for WriteReq accesses
system.cpu.dcache.WriteReq_avg_miss_latency::.cpu.data 66385.579937                       # average WriteReq miss latency
system.cpu.dcache.WriteReq_avg_miss_latency::total 66385.579937                       # average WriteReq miss latency
system.cpu.dcache.WriteReq_mshr_misses::.cpu.data         1914                       # number of WriteReq MSHR misses
system.cpu.dcache.WriteReq_mshr_misses::total         1914                       # number of WriteReq MSHR misses
system.cpu.dcache.WriteReq_mshr_miss_latency::.cpu.data    125148000                       # number of WriteReq MSHR miss cycles
system.cpu.dcache.WriteReq_mshr_miss_latency::total    125148000                       # number of WriteReq MSHR miss cycles
system.cpu.dcache.WriteReq_mshr_miss_rate::.cpu.data     0.009700                       # mshr miss rate for WriteReq accesses
system.cpu.dcache.WriteReq_mshr_miss_rate::total     0.009700                       # mshr miss rate for WriteReq accesses
system.cpu.dcache.WriteReq_avg_mshr_miss_latency::.cpu.data 65385.579937                       # average WriteReq mshr miss latency
system.cpu.dcache.WriteReq_avg_mshr_miss_latency::total 65385.579937                       # average WriteReq mshr miss latency
system.cpu.dcache.power_state.pwrStateResidencyTicks::UNDEFINED   4607486500                       # Cumulative time (in ticks) in various power states
system.cpu.dcache.tags.tagsinuse          1927.024673                       # Cycle average of tags in use
system.cpu.dcache.tags.total_refs              713390                       # Total number of references to valid blocks.
system.cpu.dcache.tags.sampled_refs             13142                       # Sample count of references to valid blocks.
system.cpu.dcache.tags.avg_refs             54.283214                       # Average number of references to valid blocks.
system.cpu.dcache.tags.warmup_cycle            174500                       # Cycle when the warmup percentage was hit.
system.cpu.dcache.tags.occ_blocks::.cpu.data  1927.024673                       # Average occupied blocks per requestor
system.cpu.dcache.tags.occ_percent::.cpu.data     0.940930                       # Average percentage of cache occupancy
system.cpu.dcache.tags.occ_percent::total     0.940930                       # Average percentage of cache occupancy
system.cpu.dcache.tags.occ_task_id_blocks::1024         2048                       # Occupied blocks per task id
system.cpu.dcache.tags.age_task_id_blocks_1024::0           35                       # Occupied blocks per task id
system.cpu.dcache.tags.age_task_id_blocks_1024::1          228                       # Occupied blocks per task id
system.cpu.dcache.tags.age_task_id_blocks_1024::2         1596                       # Occupied blocks per task id
system.cpu.dcache.tags.age_task_id_blocks_1024::3          189                       # Occupied blocks per task id
system.cpu.dcache.tags.occ_task_id_percent::1024            1                       # Percentage of cache occupancy per task id
system.cpu.dcache.tags.tag_accesses           1439922                       # Number of tag accesses
system.cpu.dcache.tags.data_accesses          1439922                       # Number of data accesses
system.cpu.dcache.tags.power_state.pwrStateResidencyTicks::UNDEFINED   4607486500                       # Cumulative time (in ticks) in various power states
system.cpu.dtb.rdAccesses                      516285                       # TLB accesses on read requests
system.cpu.dtb.wrAccesses                      197341                       # TLB accesses on write requests
system.cpu.dtb.rdMisses                          1361                       # TLB misses on read requests
system.cpu.dtb.wrMisses                           101                       # TLB misses on write requests
system.cpu.dtb.walker.power_state.pwrStateResidencyTicks::UNDEFINED   4607486500                       # Cumulative time (in ticks) in various power states
system.cpu.dtb_walker_cache.blocked_cycles::no_mshrs            0                       # number of cycles access was blocked
system.cpu.dtb_walker_cache.blocked_cycles::no_targets            0                       # number of cycles access was blocked
system.cpu.dtb_walker_cache.blocked::no_mshrs            0                       # number of cycles access was blocked
system.cpu.dtb_walker_cache.blocked::no_targets            0                       # number of cycles access was blocked
system.cpu.dtb_walker_cache.avg_blocked_cycles::no_mshrs          nan                       # average number of cycles each access was blocked
system.cpu.dtb_walker_cache.avg_blocked_cycles::no_targets          nan                       # average number of cycles each access was blocked
system.cpu.dtb_walker_cache.replacements            0                       # number of replacements
system.cpu.dtb_walker_cache.power_state.pwrStateResidencyTicks::UNDEFINED   4607486500                       # Cumulative time (in ticks) in various power states
system.cpu.dtb_walker_cache.tags.tagsinuse            0                       # Cycle average of tags in use
system.cpu.dtb_walker_cache.tags.total_refs            0                       # Total number of references to valid blocks.
system.cpu.dtb_walker_cache.tags.sampled_refs            0                       # Sample count of references to valid blocks.
system.cpu.dtb_walker_cache.tags.avg_refs          nan                       # Average number of references to valid blocks.
system.cpu.dtb_walker_cache.tags.warmup_cycle            0                       # Cycle when the warmup percentage was hit.
system.cpu.dtb_walker_cache.tags.tag_accesses            0                       # Number of tag accesses
system.cpu.dtb_walker_cache.tags.data_accesses            0                       # Number of data accesses
system.cpu.dtb_walker_cache.tags.power_state.pwrStateResidencyTicks::UNDEFINED   4607486500                       # Cumulative time (in ticks) in various power states
system.cpu.icache.demand_hits::.cpu.inst      2904589                       # number of demand (read+write) hits
system.cpu.icache.demand_hits::total          2904589                       # number of demand (read+write) hits
system.cpu.icache.overall_hits::.cpu.inst      2904589                       # number of overall hits
system.cpu.icache.overall_hits::total         2904589                       # number of overall hits
system.cpu.icache.demand_misses::.cpu.inst         1756                       # number of demand (read+write) misses
system.cpu.icache.demand_misses::total           1756                       # number of demand (read+write) misses
system.cpu.icache.overall_misses::.cpu.inst         1756                       # number of overall misses
system.cpu.icache.overall_misses::total          1756                       # number of overall misses
system.cpu.icache.demand_miss_latency::.cpu.inst    138671000                       # number of demand (read+write) miss cycles
system.cpu.icache.demand_miss_latency::total    138671000                       # number of demand (read+write) miss cycles
system.cpu.icache.overall_miss_latency::.cpu.inst    138671000                       # number of overall miss cycles
system.cpu.icache.overall_miss_latency::total    138671000                       # number of overall miss cycles
system.cpu.icache.demand_accesses::.cpu.inst      2906345                       # number of demand (read+write) accesses
system.cpu.icache.demand_accesses::total      2906345                       # number of demand (read+write) accesses
system.cpu.icache.overall_accesses::.cpu.inst      2906345                       # number of overall (read+write) accesses
system.cpu.icache.overall_accesses::total      2906345                       # number of overall (read+write) accesses
system.cpu.icache.demand_miss_rate::.cpu.inst     0.000604                       # miss rate for demand accesses
system.cpu.icache.demand_miss_rate::total     0.000604                       # miss rate for demand accesses
system.cpu.icache.overall_miss_rate::.cpu.inst     0.000604                       # miss rate for overall accesses
system.cpu.icache.overall_miss_rate::total     0.000604                       # miss rate for overall accesses
system.cpu.icache.demand_avg_miss_latency::.cpu.inst 78969.817768                       # average overall miss latency
system.cpu.icache.demand_avg_miss_latency::total 78969.817768                       # average overall miss latency
system.cpu.icache.overall_avg_miss_latency::.cpu.inst 78969.817768                       # average overall miss latency
system.cpu.icache.overall_avg_miss_latency::total 78969.817768                       # average overall miss latency
system.cpu.icache.blocked_cycles::no_mshrs            0                       # number of cycles access was blocked
system.cpu.icache.blocked_cycles::no_targets            0                       # number of cycles access was blocked
system.cpu.icache.blocked::no_mshrs                 0                       # number of cycles access was blocked
system.cpu.icache.blocked::no_targets               0                       # number of cycles access was blocked
system.cpu.icache.avg_blocked_cycles::no_mshrs          nan                       # average number of cycles each access was blocked
system.cpu.icache.avg_blocked_cycles::no_targets          nan                       # average number of cycles each access was blocked
system.cpu.icache.writebacks::.writebacks           62                       # number of writebacks
system.cpu.icache.writebacks::total                62                       # number of writebacks
system.cpu.icache.demand_mshr_misses::.cpu.inst         1756                       # number of demand (read+write) MSHR misses
system.cpu.icache.demand_mshr_misses::total         1756                       # number of demand (read+write) MSHR misses
system.cpu.icache.overall_mshr_misses::.cpu.inst         1756                       # number of overall MSHR misses
system.cpu.icache.overall_mshr_misses::total         1756                       # number of overall MSHR misses
system.cpu.icache.demand_mshr_miss_latency::.cpu.inst    136915000                       # number of demand (read+write) MSHR miss cycles
system.cpu.icache.demand_mshr_miss_latency::total    136915000                       # number of demand (read+write) MSHR miss cycles
system.cpu.icache.overall_mshr_miss_latency::.cpu.inst    136915000                       # number of overall MSHR miss cycles
system.cpu.icache.overall_mshr_miss_latency::total    136915000                       # number of overall MSHR miss cycles
system.cpu.icache.demand_mshr_miss_rate::.cpu.inst     0.000604                       # mshr miss rate for demand accesses
system.cpu.icache.demand_mshr_miss_rate::total     0.000604                       # mshr miss rate for demand accesses
system.cpu.icache.overall_mshr_miss_rate::.cpu.inst     0.000604                       # mshr miss rate for overall accesses
system.cpu.icache.overall_mshr_miss_rate::total     0.000604                       # mshr miss rate for overall accesses
system.cpu.icache.demand_avg_mshr_miss_latency::.cpu.inst 77969.817768                       # average overall mshr miss latency
system.cpu.icache.demand_avg_mshr_miss_latency::total 77969.817768                       # average overall mshr miss latency
system.cpu.icache.overall_avg_mshr_miss_latency::.cpu.inst 77969.817768                       # average overall mshr miss latency
system.cpu.icache.overall_avg_mshr_miss_latency::total 77969.817768                       # average overall mshr miss latency
system.cpu.icache.replacements                     62                       # number of replacements
system.cpu.icache.ReadReq_hits::.cpu.inst      2904589                       # number of ReadReq hits
system.cpu.icache.ReadReq_hits::total         2904589                       # number of ReadReq hits
system.cpu.icache.ReadReq_misses::.cpu.inst         1756                       # number of ReadReq misses
system.cpu.icache.ReadReq_misses::total          1756                       # number of ReadReq misses
system.cpu.icache.ReadReq_miss_latency::.cpu.inst    138671000                       # number of ReadReq miss cycles
system.cpu.icache.ReadReq_miss_latency::total    138671000                       # number of ReadReq miss cycles
system.cpu.icache.ReadReq_accesses::.cpu.inst      2906345                       # number of ReadReq accesses(hits+misses)
system.cpu.icache.ReadReq_accesses::total      2906345                       # number of ReadReq accesses(hits+misses)
system.cpu.icache.ReadReq_miss_rate::.cpu.inst     0.000604                       # miss rate for ReadReq accesses
system.cpu.icache.ReadReq_miss_rate::total     0.000604                       # miss rate for ReadReq accesses
system.cpu.icache.ReadReq_avg_miss_latency::.cpu.inst 78969.817768                       # average ReadReq miss latency
system.cpu.icache.ReadReq_avg_miss_latency::total 78969.817768                       # average ReadReq miss latency
system.cpu.icache.ReadReq_mshr_misses::.cpu.inst         1756                       # number of ReadReq MSHR misses
system.cpu.icache.ReadReq_mshr_misses::total         1756                       # number of ReadReq MSHR misses
system.cpu.icache.ReadReq_mshr_miss_latency::.cpu.inst    136915000                       # number of ReadReq MSHR miss cycles
system.cpu.icache.ReadReq_mshr_miss_latency::total    136915000                       # number of ReadReq MSHR miss cycles
system.cpu.icache.ReadReq_mshr_miss_rate::.cpu.inst     0.000604                       # mshr miss rate for ReadReq accesses
system.cpu.icache.ReadReq_mshr_miss_rate::total     0.000604                       # mshr miss rate for ReadReq accesses
system.cpu.icache.ReadReq_avg_mshr_miss_latency::.cpu.inst 77969.817768                       # average ReadReq mshr miss latency
system.cpu.icache.ReadReq_avg_mshr_miss_latency::total 77969.817768                       # average ReadReq mshr miss latency
system.cpu.icache.power_state.pwrStateResidencyTicks::UNDEFINED   4607486500                       # Cumulative time (in ticks) in various power states
system.cpu.icache.tags.tagsinuse           762.509134                       # Cycle average of tags in use
system.cpu.icache.tags.total_refs             2906345                       # Total number of references to valid blocks.
system.cpu.icache.tags.sampled_refs              1756                       # Sample count of references to valid blocks.
system.cpu.icache.tags.avg_refs           1655.093964                       # Average number of references to valid blocks.
system.cpu.icache.tags.warmup_cycle             87500                       # Cycle when the warmup percentage was hit.
system.cpu.icache.tags.occ_blocks::.cpu.inst   762.509134                       # Average occupied blocks per requestor
system.cpu.icache.tags.occ_percent::.cpu.inst     0.186159                       # Average percentage of cache occupancy
system.cpu.icache.tags.occ_percent::total     0.186159                       # Average percentage of cache occupancy
system.cpu.icache.tags.occ_task_id_blocks::1024         1694                       # Occupied blocks per task id
system.cpu.icache.tags.age_task_id_blocks_1024::0           49                       # Occupied blocks per task id
system.cpu.icache.tags.age_task_id_blocks_1024::1          307                       # Occupied blocks per task id
system.cpu.icache.tags.age_task_id_blocks_1024::2          648                       # Occupied blocks per task id
system.cpu.icache.tags.age_task_id_blocks_1024::3          690                       # Occupied blocks per task id
system.cpu.icache.tags.occ_task_id_percent::1024     0.413574                       # Percentage of cache occupancy per task id
system.cpu.icache.tags.tag_accesses           5814446                       # Number of tag accesses
system.cpu.icache.tags.data_accesses          5814446                       # Number of data accesses
system.cpu.icache.tags.power_state.pwrStateResidencyTicks::UNDEFINED   4607486500                       # Cumulative time (in ticks) in various power states
system.cpu.interrupts.clk_domain.clock           8000                       # Clock period in ticks
system.cpu.itb.rdAccesses                           0                       # TLB accesses on read requests
system.cpu.itb.wrAccesses                     2906461                       # TLB accesses on write requests
system.cpu.itb.rdMisses                             0                       # TLB misses on read requests
system.cpu.itb.wrMisses                           395                       # TLB misses on write requests
system.cpu.itb.walker.power_state.pwrStateResidencyTicks::UNDEFINED   4607486500                       # Cumulative time (in ticks) in various power states
system.cpu.itb_walker_cache.blocked_cycles::no_mshrs            0                       # number of cycles access was blocked
system.cpu.itb_walker_cache.blocked_cycles::no_targets            0                       # number of cycles access was blocked
system.cpu.itb_walker_cache.blocked::no_mshrs            0                       # number of cycles access was blocked
system.cpu.itb_walker_cache.blocked::no_targets            0                       # number of cycles access was blocked
system.cpu.itb_walker_cache.avg_blocked_cycles::no_mshrs          nan                       # average number of cycles each access was blocked
system.cpu.itb_walker_cache.avg_blocked_cycles::no_targets          nan                       # average number of cycles each access was blocked
system.cpu.itb_walker_cache.replacements            0                       # number of replacements
system.cpu.itb_walker_cache.power_state.pwrStateResidencyTicks::UNDEFINED   4607486500                       # Cumulative time (in ticks) in various power states
system.cpu.itb_walker_cache.tags.tagsinuse            0                       # Cycle average of tags in use
system.cpu.itb_walker_cache.tags.total_refs            0                       # Total number of references to valid blocks.
system.cpu.itb_walker_cache.tags.sampled_refs            0                       # Sample count of references to valid blocks.
system.cpu.itb_walker_cache.tags.avg_refs          nan                       # Average number of references to valid blocks.
system.cpu.itb_walker_cache.tags.warmup_cycle            0                       # Cycle when the warmup percentage was hit.
system.cpu.itb_walker_cache.tags.tag_accesses            0                       # Number of tag accesses
system.cpu.itb_walker_cache.tags.data_accesses            0                       # Number of data accesses
system.cpu.itb_walker_cache.tags.power_state.pwrStateResidencyTicks::UNDEFINED   4607486500                       # Cumulative time (in ticks) in various power states
system.cpu.power_state.pwrStateResidencyTicks::ON   4607486500                       # Cumulative time (in ticks) in various power states
system.cpu.thread_0.numInsts                        0                       # Number of Instructions committed
system.cpu.thread_0.numOps                          0                       # Number of Ops committed
system.cpu.thread_0.numMemRefs                      0                       # Number of Memory References
system.cpu_clk_domain.clock                       500                       # Clock period in ticks
system.cpu_voltage_domain.voltage                   1                       # Voltage in Volts
system.l2.demand_hits::.cpu.inst                    2                       # number of demand (read+write) hits
system.l2.demand_hits::.cpu.data                 3296                       # number of demand (read+write) hits
system.l2.demand_hits::total                     3298                       # number of demand (read+write) hits
system.l2.overall_hits::.cpu.inst                   2                       # number of overall hits
system.l2.overall_hits::.cpu.data                3296                       # number of overall hits
system.l2.overall_hits::total                    3298                       # number of overall hits
system.l2.demand_misses::.cpu.inst               1754                       # number of demand (read+write) misses
system.l2.demand_misses::.cpu.data               9846                       # number of demand (read+write) misses
system.l2.demand_misses::total                  11600                       # number of demand (read+write) misses
system.l2.overall_misses::.cpu.inst              1754                       # number of overall misses
system.l2.overall_misses::.cpu.data              9846                       # number of overall misses
system.l2.overall_misses::total                 11600                       # number of overall misses
system.l2.demand_miss_latency::.cpu.inst    134256000                       # number of demand (read+write) miss cycles
system.l2.demand_miss_latency::.cpu.data    796622500                       # number of demand (read+write) miss cycles
system.l2.demand_miss_latency::total        930878500                       # number of demand (read+write) miss cycles
system.l2.overall_miss_latency::.cpu.inst    134256000                       # number of overall miss cycles
system.l2.overall_miss_latency::.cpu.data    796622500                       # number of overall miss cycles
system.l2.overall_miss_latency::total       930878500                       # number of overall miss cycles
system.l2.demand_accesses::.cpu.inst             1756                       # number of demand (read+write) accesses
system.l2.demand_accesses::.cpu.data            13142                       # number of demand (read+write) accesses
system.l2.demand_accesses::total                14898                       # number of demand (read+write) accesses
system.l2.overall_accesses::.cpu.inst            1756                       # number of overall (read+write) accesses
system.l2.overall_accesses::.cpu.data           13142                       # number of overall (read+write) accesses
system.l2.overall_accesses::total               14898                       # number of overall (read+write) accesses
system.l2.demand_miss_rate::.cpu.inst        0.998861                       # miss rate for demand accesses
system.l2.demand_miss_rate::.cpu.data        0.749201                       # miss rate for demand accesses
system.l2.demand_miss_rate::total            0.778628                       # miss rate for demand accesses
system.l2.overall_miss_rate::.cpu.inst       0.998861                       # miss rate for overall accesses
system.l2.overall_miss_rate::.cpu.data       0.749201                       # miss rate for overall accesses
system.l2.overall_miss_rate::total           0.778628                       # miss rate for overall accesses
system.l2.demand_avg_miss_latency::.cpu.inst 76542.759407                       # average overall miss latency
system.l2.demand_avg_miss_latency::.cpu.data 80908.236847                       # average overall miss latency
system.l2.demand_avg_miss_latency::total 80248.146552                       # average overall miss latency
system.l2.overall_avg_miss_latency::.cpu.inst 76542.759407                       # average overall miss latency
system.l2.overall_avg_miss_latency::.cpu.data 80908.236847                       # average overall miss latency
system.l2.overall_avg_miss_latency::total 80248.146552                       # average overall miss latency
system.l2.blocked_cycles::no_mshrs                  0                       # number of cycles access was blocked
system.l2.blocked_cycles::no_targets                0                       # number of cycles access was blocked
system.l2.blocked::no_mshrs                         0                       # number of cycles access was blocked
system.l2.blocked::no_targets                       0                       # number of cycles access was blocked
system.l2.avg_blocked_cycles::no_mshrs            nan                       # average number of cycles each access was blocked
system.l2.avg_blocked_cycles::no_targets          nan                       # average number of cycles each access was blocked
system.l2.writebacks::.writebacks                 147                       # number of writebacks
system.l2.writebacks::total                       147                       # number of writebacks
system.l2.demand_mshr_misses::.cpu.inst          1754                       # number of demand (read+write) MSHR misses
system.l2.demand_mshr_misses::.cpu.data          9846                       # number of demand (read+write) MSHR misses
system.l2.demand_mshr_misses::total             11600                       # number of demand (read+write) MSHR misses
system.l2.overall_mshr_misses::.cpu.inst         1754                       # number of overall MSHR misses
system.l2.overall_mshr_misses::.cpu.data         9846                       # number of overall MSHR misses
system.l2.overall_mshr_misses::total            11600                       # number of overall MSHR misses
system.l2.demand_mshr_miss_latency::.cpu.inst    116716000                       # number of demand (read+write) MSHR miss cycles
system.l2.demand_mshr_miss_latency::.cpu.data    698162500                       # number of demand (read+write) MSHR miss cycles
system.l2.demand_mshr_miss_latency::total    814878500                       # number of demand (read+write) MSHR miss cycles
system.l2.overall_mshr_miss_latency::.cpu.inst    116716000                       # number of overall MSHR miss cycles
system.l2.overall_mshr_miss_latency::.cpu.data    698162500                       # number of overall MSHR miss cycles
system.l2.overall_mshr_miss_latency::total    814878500                       # number of overall MSHR miss cycles
system.l2.demand_mshr_miss_rate::.cpu.inst     0.998861                       # mshr miss rate for demand accesses
system.l2.demand_mshr_miss_rate::.cpu.data     0.749201                       # mshr miss rate for demand accesses
system.l2.demand_mshr_miss_rate::total       0.778628                       # mshr miss rate for demand accesses
system.l2.overall_mshr_miss_rate::.cpu.inst     0.998861                       # mshr miss rate for overall accesses
system.l2.overall_mshr_miss_rate::.cpu.data     0.749201                       # mshr miss rate for overall accesses
system.l2.overall_mshr_miss_rate::total      0.778628                       # mshr miss rate for overall accesses
system.l2.demand_avg_mshr_miss_latency::.cpu.inst 66542.759407                       # average overall mshr miss latency
system.l2.demand_avg_mshr_miss_latency::.cpu.data 70908.236847                       # average overall mshr miss latency
system.l2.demand_avg_mshr_miss_latency::total 70248.146552                       # average overall mshr miss latency
system.l2.overall_avg_mshr_miss_latency::.cpu.inst 66542.759407                       # average overall mshr miss latency
system.l2.overall_avg_mshr_miss_latency::.cpu.data 70908.236847                       # average overall mshr miss latency
system.l2.overall_avg_mshr_miss_latency::total 70248.146552                       # average overall mshr miss latency
system.l2.replacements                           1175                       # number of replacements
system.l2.WritebackDirty_hits::.writebacks         2145                       # number of WritebackDirty hits
system.l2.WritebackDirty_hits::total             2145                       # number of WritebackDirty hits
system.l2.WritebackDirty_accesses::.writebacks         2145                       # number of WritebackDirty accesses(hits+misses)
system.l2.WritebackDirty_accesses::total         2145                       # number of WritebackDirty accesses(hits+misses)
system.l2.WritebackClean_hits::.writebacks           62                       # number of WritebackClean hits
system.l2.WritebackClean_hits::total               62                       # number of WritebackClean hits
system.l2.WritebackClean_accesses::.writebacks           62                       # number of WritebackClean accesses(hits+misses)
system.l2.WritebackClean_accesses::total           62                       # number of WritebackClean accesses(hits+misses)
system.l2.CleanEvict_mshr_misses::.writebacks           94                       # number of CleanEvict MSHR misses
system.l2.CleanEvict_mshr_misses::total            94                       # number of CleanEvict MSHR misses
system.l2.CleanEvict_mshr_miss_rate::.writebacks          inf                       # mshr miss rate for CleanEvict accesses
system.l2.CleanEvict_mshr_miss_rate::total          inf                       # mshr miss rate for CleanEvict accesses
system.l2.ReadExReq_hits::.cpu.data               386                       # number of ReadExReq hits
system.l2.ReadExReq_hits::total                   386                       # number of ReadExReq hits
system.l2.ReadExReq_misses::.cpu.data            1528                       # number of ReadExReq misses
system.l2.ReadExReq_misses::total                1528                       # number of ReadExReq misses
system.l2.ReadExReq_miss_latency::.cpu.data    118224000                       # number of ReadExReq miss cycles
system.l2.ReadExReq_miss_latency::total     118224000                       # number of ReadExReq miss cycles
system.l2.ReadExReq_accesses::.cpu.data          1914                       # number of ReadExReq accesses(hits+misses)
system.l2.ReadExReq_accesses::total              1914                       # number of ReadExReq accesses(hits+misses)
system.l2.ReadExReq_miss_rate::.cpu.data     0.798328                       # miss rate for ReadExReq accesses
system.l2.ReadExReq_miss_rate::total         0.798328                       # miss rate for ReadExReq accesses
system.l2.ReadExReq_avg_miss_latency::.cpu.data 77371.727749                       # average ReadExReq miss latency
system.l2.ReadExReq_avg_miss_latency::total 77371.727749                       # average ReadExReq miss latency
system.l2.ReadExReq_mshr_misses::.cpu.data         1528                       # number of ReadExReq MSHR misses
system.l2.ReadExReq_mshr_misses::total           1528                       # number of ReadExReq MSHR misses
system.l2.ReadExReq_mshr_miss_latency::.cpu.data    102944000                       # number of ReadExReq MSHR miss cycles
system.l2.ReadExReq_mshr_miss_latency::total    102944000                       # number of ReadExReq MSHR miss cycles
system.l2.ReadExReq_mshr_miss_rate::.cpu.data     0.798328                       # mshr miss rate for ReadExReq accesses
system.l2.ReadExReq_mshr_miss_rate::total     0.798328                       # mshr miss rate for ReadExReq accesses
system.l2.ReadExReq_avg_mshr_miss_latency::.cpu.data 67371.727749                       # average ReadExReq mshr miss latency
system.l2.ReadExReq_avg_mshr_miss_latency::total 67371.727749                       # average ReadExReq mshr miss latency
system.l2.ReadCleanReq_hits::.cpu.inst              2                       # number of ReadCleanReq hits
system.l2.ReadCleanReq_hits::total                  2                       # number of ReadCleanReq hits
system.l2.ReadCleanReq_misses::.cpu.inst         1754                       # number of ReadCleanReq misses
system.l2.ReadCleanReq_misses::total             1754                       # number of ReadCleanReq misses
system.l2.ReadCleanReq_miss_latency::.cpu.inst    134256000                       # number of ReadCleanReq miss cycles
system.l2.ReadCleanReq_miss_latency::total    134256000                       # number of ReadCleanReq miss cycles
system.l2.ReadCleanReq_accesses::.cpu.inst         1756                       # number of ReadCleanReq accesses(hits+misses)
system.l2.ReadCleanReq_accesses::total           1756                       # number of ReadCleanReq accesses(hits+misses)
system.l2.ReadCleanReq_miss_rate::.cpu.inst     0.998861                       # miss rate for ReadCleanReq accesses
system.l2.ReadCleanReq_miss_rate::total      0.998861                       # miss rate for ReadCleanReq accesses
system.l2.ReadCleanReq_avg_miss_latency::.cpu.inst 76542.759407                       # average ReadCleanReq miss latency
system.l2.ReadCleanReq_avg_miss_latency::total 76542.759407                       # average ReadCleanReq miss latency
system.l2.ReadCleanReq_mshr_misses::.cpu.inst         1754                       # number of ReadCleanReq MSHR misses
system.l2.ReadCleanReq_mshr_misses::total         1754                       # number of ReadCleanReq MSHR misses
system.l2.ReadCleanReq_mshr_miss_latency::.cpu.inst    116716000                       # number of ReadCleanReq MSHR miss cycles
system.l2.ReadCleanReq_mshr_miss_latency::total    116716000                       # number of ReadCleanReq MSHR miss cycles
system.l2.ReadCleanReq_mshr_miss_rate::.cpu.inst     0.998861                       # mshr miss rate for ReadCleanReq accesses
system.l2.ReadCleanReq_mshr_miss_rate::total     0.998861                       # mshr miss rate for ReadCleanReq accesses
system.l2.ReadCleanReq_avg_mshr_miss_latency::.cpu.inst 66542.759407                       # average ReadCleanReq mshr miss latency
system.l2.ReadCleanReq_avg_mshr_miss_latency::total 66542.759407                       # average ReadCleanReq mshr miss latency
system.l2.ReadSharedReq_hits::.cpu.data          2910                       # number of ReadSharedReq hits
system.l2.ReadSharedReq_hits::total              2910                       # number of ReadSharedReq hits
system.l2.ReadSharedReq_misses::.cpu.data         8318                       # number of ReadSharedReq misses
system.l2.ReadSharedReq_misses::total            8318                       # number of ReadSharedReq misses
system.l2.ReadSharedReq_miss_latency::.cpu.data    678398500                       # number of ReadSharedReq miss cycles
system.l2.ReadSharedReq_miss_latency::total    678398500                       # number of ReadSharedReq miss cycles
system.l2.ReadSharedReq_accesses::.cpu.data        11228                       # number of ReadSharedReq accesses(hits+misses)
system.l2.ReadSharedReq_accesses::total         11228                       # number of ReadSharedReq accesses(hits+misses)
system.l2.ReadSharedReq_miss_rate::.cpu.data     0.740827                       # miss rate for ReadSharedReq accesses
system.l2.ReadSharedReq_miss_rate::total     0.740827                       # miss rate for ReadSharedReq accesses
system.l2.ReadSharedReq_avg_miss_latency::.cpu.data 81557.886511                       # average ReadSharedReq miss latency
system.l2.ReadSharedReq_avg_miss_latency::total 81557.886511                       # average ReadSharedReq miss latency
system.l2.ReadSharedReq_mshr_misses::.cpu.data         8318                       # number of ReadSharedReq MSHR misses
system.l2.ReadSharedReq_mshr_misses::total         8318                       # number of ReadSharedReq MSHR misses
system.l2.ReadSharedReq_mshr_miss_latency::.cpu.data    595218500                       # number of ReadSharedReq MSHR miss cycles
system.l2.ReadSharedReq_mshr_miss_latency::total    595218500                       # number of ReadSharedReq MSHR miss cycles
system.l2.ReadSharedReq_mshr_miss_rate::.cpu.data     0.740827                       # mshr miss rate for ReadSharedReq accesses
system.l2.ReadSharedReq_mshr_miss_rate::total     0.740827                       # mshr miss rate for ReadSharedReq accesses
system.l2.ReadSharedReq_avg_mshr_miss_latency::.cpu.data 71557.886511                       # average ReadSharedReq mshr miss latency
system.l2.ReadSharedReq_avg_mshr_miss_latency::total 71557.886511                       # average ReadSharedReq mshr miss latency
system.l2.power_state.pwrStateResidencyTicks::UNDEFINED   4607486500                       # Cumulative time (in ticks) in various power states
system.l2.tags.tagsinuse                  6269.459144                       # Cycle average of tags in use
system.l2.tags.total_refs                       25960                       # Total number of references to valid blocks.
system.l2.tags.sampled_refs                     11651                       # Sample count of references to valid blocks.
system.l2.tags.avg_refs                      2.228135                       # Average number of references to valid blocks.
system.l2.tags.warmup_cycle                     77000                       # Cycle when the warmup percentage was hit.
system.l2.tags.occ_blocks::.writebacks       1.665497                       # Average occupied blocks per requestor
system.l2.tags.occ_blocks::.cpu.inst       705.227431                       # Average occupied blocks per requestor
system.l2.tags.occ_blocks::.cpu.data      5562.566216                       # Average occupied blocks per requestor
system.l2.tags.occ_percent::.writebacks      0.000102                       # Average percentage of cache occupancy
system.l2.tags.occ_percent::.cpu.inst        0.043044                       # Average percentage of cache occupancy
system.l2.tags.occ_percent::.cpu.data        0.339512                       # Average percentage of cache occupancy
system.l2.tags.occ_percent::total            0.382657                       # Average percentage of cache occupancy
system.l2.tags.occ_task_id_blocks::1024         10476                       # Occupied blocks per task id
system.l2.tags.age_task_id_blocks_1024::0           55                       # Occupied blocks per task id
system.l2.tags.age_task_id_blocks_1024::1          409                       # Occupied blocks per task id
system.l2.tags.age_task_id_blocks_1024::2         2708                       # Occupied blocks per task id
system.l2.tags.age_task_id_blocks_1024::3         7304                       # Occupied blocks per task id
system.l2.tags.occ_task_id_percent::1024     0.639404                       # Percentage of cache occupancy per task id
system.l2.tags.tag_accesses                     37705                       # Number of tag accesses
system.l2.tags.data_accesses                    37705                       # Number of data accesses
system.l2.tags.power_state.pwrStateResidencyTicks::UNDEFINED   4607486500                       # Cumulative time (in ticks) in various power states
system.mem_ctrls.avgPriority_.writebacks::samples       147.00                       # Average QoS priority value for accepted requests
system.mem_ctrls.avgPriority_.cpu.inst::samples      1754.00                       # Average QoS priority value for accepted requests
system.mem_ctrls.avgPriority_.cpu.data::samples      9840.00                       # Average QoS priority value for accepted requests
system.mem_ctrls.priorityMinLatency      0.000000018750                       # per QoS priority minimum request to response latency (s)
system.mem_ctrls.priorityMaxLatency      0.003773970500                       # per QoS priority maximum request to response latency (s)
system.mem_ctrls.numReadWriteTurnArounds            7                       # Number of turnarounds from READ to WRITE
system.mem_ctrls.numWriteReadTurnArounds            7                       # Number of turnarounds from WRITE to READ
system.mem_ctrls.numStayReadState               24515                       # Number of times bus staying in READ state
system.mem_ctrls.numStayWriteState                115                       # Number of times bus staying in WRITE state
system.mem_ctrls.readReqs                       11600                       # Number of read requests accepted
system.mem_ctrls.writeReqs                        147                       # Number of write requests accepted
system.mem_ctrls.readBursts                     11600                       # Number of controller read bursts, including those serviced by the write queue
system.mem_ctrls.writeBursts                      147                       # Number of controller write bursts, including those merged in the write queue
system.mem_ctrls.servicedByWrQ                      6                       # Number of controller read bursts serviced by the write queue
system.mem_ctrls.mergedWrBursts                     0                       # Number of controller write bursts merged with an existing one
system.mem_ctrls.neitherReadNorWriteReqs            0                       # Number of requests that are neither read nor write
system.mem_ctrls.avgRdQLen                       1.00                       # Average read queue length when enqueuing
system.mem_ctrls.avgWrQLen                       2.47                       # Average write queue length when enqueuing
system.mem_ctrls.numRdRetry                         0                       # Number of times read queue was full causing retry
system.mem_ctrls.numWrRetry                         0                       # Number of times write queue was full causing retry
system.mem_ctrls.readPktSize::0                     0                       # Read request sizes (log2)
system.mem_ctrls.readPktSize::1                     0                       # Read request sizes (log2)
system.mem_ctrls.readPktSize::2                     0                       # Read request sizes (log2)
system.mem_ctrls.readPktSize::3                     0                       # Read request sizes (log2)
system.mem_ctrls.readPktSize::4                     0                       # Read request sizes (log2)
system.mem_ctrls.readPktSize::5                     0                       # Read request sizes (log2)
system.mem_ctrls.readPktSize::6                 11600                       # Read request sizes (log2)
system.mem_ctrls.writePktSize::0                    0                       # Write request sizes (log2)
system.mem_ctrls.writePktSize::1                    0                       # Write request sizes (log2)
system.mem_ctrls.writePktSize::2                    0                       # Write request sizes (log2)
system.mem_ctrls.writePktSize::3                    0                       # Write request sizes (log2)
system.mem_ctrls.writePktSize::4                    0                       # Write request sizes (log2)
system.mem_ctrls.writePktSize::5                    0                       # Write request sizes (log2)
system.mem_ctrls.writePktSize::6                  147                       # Write request sizes (log2)
system.mem_ctrls.rdQLenPdf::0                   11593                       # What read queue length does an incoming req see
system.mem_ctrls.rdQLenPdf::1                       1                       # What read queue length does an incoming req see
system.mem_ctrls.rdQLenPdf::2                       0                       # What read queue length does an incoming req see
system.mem_ctrls.rdQLenPdf::3                       0                       # What read queue length does an incoming req see
system.mem_ctrls.rdQLenPdf::4                       0                       # What read queue length does an incoming req see
system.mem_ctrls.rdQLenPdf::5                       0                       # What read queue length does an incoming req see
system.mem_ctrls.rdQLenPdf::6                       0                       # What read queue length does an incoming req see
system.mem_ctrls.rdQLenPdf::7                       0                       # What read queue length does an incoming req see
system.mem_ctrls.rdQLenPdf::8                       0                       # What read queue length does an incoming req see
system.mem_ctrls.rdQLenPdf::9                       0                       # What read queue length does an incoming req see
system.mem_ctrls.rdQLenPdf::10                      0                       # What read queue length does an incoming req see
system.mem_ctrls.rdQLenPdf::11                      0                       # What read queue length does an incoming req see
system.mem_ctrls.rdQLenPdf::12                      0                       # What read queue length does an incoming req see
system.mem_ctrls.rdQLenPdf::13                      0                       # What read queue length does an incoming req see
system.mem_ctrls.rdQLenPdf::14                      0                       # What read queue length does an incoming req see
system.mem_ctrls.rdQLenPdf::15                      0                       # What read queue length does an incoming req see
system.mem_ctrls.rdQLenPdf::16                      0                       # What read queue length does an incoming req see
system.mem_ctrls.rdQLenPdf::17                      0                       # What read queue length does an incoming req see
system.mem_ctrls.rdQLenPdf::18                      0                       # What read queue length does an incoming req see
system.mem_ctrls.rdQLenPdf::19                      0                       # What read queue length does an incoming req see
system.mem_ctrls.rdQLenPdf::20                      0                       # What read queue length does an incoming req see
system.mem_ctrls.rdQLenPdf::21                      0                       # What read queue length does an incoming req see
system.mem_ctrls.rdQLenPdf::22                      0                       # What read queue length does an incoming req see
system.mem_ctrls.rdQLenPdf::23                      0                       # What read queue length does an incoming req see
system.mem_ctrls.rdQLenPdf::24                      0                       # What read queue length does an incoming req see
system.mem_ctrls.rdQLenPdf::25                      0                       # What read queue length does an incoming req see
system.mem_ctrls.rdQLenPdf::26                      0                       # What read queue length does an incoming req see
system.mem_ctrls.rdQLenPdf::27                      0                       # What read queue length does an incoming req see
system.mem_ctrls.rdQLenPdf::28                      0                       # What read queue length does an incoming req see
system.mem_ctrls.rdQLenPdf::29                      0                       # What read queue length does an incoming req see
system.mem_ctrls.rdQLenPdf::30                      0                       # What read queue length does an incoming req see
system.mem_ctrls.rdQLenPdf::31                      0                       # What read queue length does an incoming req see
system.mem_ctrls.wrQLenPdf::0                       1                       # What write queue length does an incoming req see
system.mem_ctrls.wrQLenPdf::1                       1                       # What write queue length does an incoming req see
system.mem_ctrls.wrQLenPdf::2                       1                       # What write queue length does an incoming req see
system.mem_ctrls.wrQLenPdf::3                       1                       # What write queue length does an incoming req see
system.mem_ctrls.wrQLenPdf::4                       1                       # What write queue length does an incoming req see
system.mem_ctrls.wrQLenPdf::5                       1                       # What write queue length does an incoming req see
system.mem_ctrls.wrQLenPdf::6                       1                       # What write queue length does an incoming req see
system.mem_ctrls.wrQLenPdf::7                       1                       # What write queue length does an incoming req see
system.mem_ctrls.wrQLenPdf::8                       1                       # What write queue length does an incoming req see
system.mem_ctrls.wrQLenPdf::9                       1                       # What write queue length does an incoming req see
system.mem_ctrls.wrQLenPdf::10                      1                       # What write queue length does an incoming req see
system.mem_ctrls.wrQLenPdf::11                      1                       # What write queue length does an incoming req see
system.mem_ctrls.wrQLenPdf::12                      1                       # What write queue length does an incoming req see
system.mem_ctrls.wrQLenPdf::13                      1                       # What write queue length does an incoming req see
system.mem_ctrls.wrQLenPdf::14                      1                       # What write queue length does an incoming req see
system.mem_ctrls.wrQLenPdf::15                      6                       # What write queue length does an incoming req see
system.mem_ctrls.wrQLenPdf::16                      6                       # What write queue length does an incoming req see
system.mem_ctrls.wrQLenPdf::17                      8                       # What write queue length does an incoming req see
system.mem_ctrls.wrQLenPdf::18                      8                       # What write queue length does an incoming req see
system.mem_ctrls.wrQLenPdf::19                      8                       # What write queue length does an incoming req see
system.mem_ctrls.wrQLenPdf::20                      8                       # What write queue length does an incoming req see
system.mem_ctrls.wrQLenPdf::21                      8                       # What write queue length does an incoming req see
system.mem_ctrls.wrQLenPdf::22                      8                       # What write queue length does an incoming req see
system.mem_ctrls.wrQLenPdf::23                      8                       # What write queue length does an incoming req see
system.mem_ctrls.wrQLenPdf::24                      8                       # What write queue length does an incoming req see
system.mem_ctrls.wrQLenPdf::25                      7                       # What write queue length does an incoming req see
system.mem_ctrls.wrQLenPdf::26                      7                       # What write queue length does an incoming req see
system.mem_ctrls.wrQLenPdf::27                      7                       # What write queue length does an incoming req see
system.mem_ctrls.wrQLenPdf::28                      7                       # What write queue length does an incoming req see
system.mem_ctrls.wrQLenPdf::29                      7                       # What write queue length does an incoming req see
system.mem_ctrls.wrQLenPdf::30                      7                       # What write queue length does an incoming req see
system.mem_ctrls.wrQLenPdf::31                      7                       # What write queue length does an incoming req see
system.mem_ctrls.wrQLenPdf::32                      7                       # What write queue length does an incoming req see
system.mem_ctrls.wrQLenPdf::33                      0                       # What write queue length does an incoming req see
system.mem_ctrls.wrQLenPdf::34                      0                       # What write queue length does an incoming req see
system.mem_ctrls.wrQLenPdf::35                      0                       # What write queue length does an incoming req see
system.mem_ctrls.wrQLenPdf::36                      0                       # What write queue length does an incoming req see
system.mem_ctrls.wrQLenPdf::37                      0                       # What write queue length does an incoming req see
system.mem_ctrls.wrQLenPdf::38                      0                       # What write queue length does an incoming req see
system.mem_ctrls.wrQLenPdf::39                      0                       # What write queue length does an incoming req see
system.mem_ctrls.wrQLenPdf::40                      0                       # What write queue length does an incoming req see
system.mem_ctrls.wrQLenPdf::41                      0                       # What write queue length does an incoming req see
system.mem_ctrls.wrQLenPdf::42                      0                       # What write queue length does an incoming req see
system.mem_ctrls.wrQLenPdf::43                      0                       # What write queue length does an incoming req see
system.mem_ctrls.wrQLenPdf::44                      0                       # What write queue length does an incoming req see
system.mem_ctrls.wrQLenPdf::45                      0                       # What write queue length does an incoming req see
system.mem_ctrls.wrQLenPdf::46                      0                       # What write queue length does an incoming req see
system.mem_ctrls.wrQLenPdf::47                      0                       # What write queue length does an incoming req see
system.mem_ctrls.wrQLenPdf::48                      0                       # What write queue length does an incoming req see
system.mem_ctrls.wrQLenPdf::49                      0                       # What write queue length does an incoming req see
system.mem_ctrls.wrQLenPdf::50                      0                       # What write queue length does an incoming req see
system.mem_ctrls.wrQLenPdf::51                      0                       # What write queue length does an incoming req see
system.mem_ctrls.wrQLenPdf::52                      0                       # What write queue length does an incoming req see
system.mem_ctrls.wrQLenPdf::53                      0                       # What write queue length does an incoming req see
system.mem_ctrls.wrQLenPdf::54                      0                       # What write queue length does an incoming req see
system.mem_ctrls.wrQLenPdf::55                      0                       # What write queue length does an incoming req see
system.mem_ctrls.wrQLenPdf::56                      0                       # What write queue length does an incoming req see
system.mem_ctrls.wrQLenPdf::57                      0                       # What write queue length does an incoming req see
system.mem_ctrls.wrQLenPdf::58                      0                       # What write queue length does an incoming req see
system.mem_ctrls.wrQLenPdf::59                      0                       # What write queue length does an incoming req see
system.mem_ctrls.wrQLenPdf::60                      0                       # What write queue length does an incoming req see
system.mem_ctrls.wrQLenPdf::61                      0                       # What write queue length does an incoming req see
system.mem_ctrls.wrQLenPdf::62                      0                       # What write queue length does an incoming req see
system.mem_ctrls.wrQLenPdf::63                      0                       # What write queue length does an incoming req see
system.mem_ctrls.rdPerTurnAround::samples            7                       # Reads before turning the bus around for writes
system.mem_ctrls.rdPerTurnAround::mean    1634.714286                       # Reads before turning the bus around for writes
system.mem_ctrls.rdPerTurnAround::gmean    250.326641                       # Reads before turning the bus around for writes
system.mem_ctrls.rdPerTurnAround::stdev   3881.807428                       # Reads before turning the bus around for writes
system.mem_ctrls.rdPerTurnAround::0-511             6     85.71%     85.71% # Reads before turning the bus around for writes
system.mem_ctrls.rdPerTurnAround::10240-10751            1     14.29%    100.00% # Reads before turning the bus around for writes
system.mem_ctrls.rdPerTurnAround::total             7                       # Reads before turning the bus around for writes
system.mem_ctrls.wrPerTurnAround::samples            7                       # Writes before turning the bus around for reads
system.mem_ctrls.wrPerTurnAround::mean      17.428571                       # Writes before turning the bus around for reads
system.mem_ctrls.wrPerTurnAround::gmean     17.404338                       # Writes before turning the bus around for reads
system.mem_ctrls.wrPerTurnAround::stdev      0.975900                       # Writes before turning the bus around for reads
system.mem_ctrls.wrPerTurnAround::16                2     28.57%     28.57% # Writes before turning the bus around for reads
system.mem_ctrls.wrPerTurnAround::18                5     71.43%    100.00% # Writes before turning the bus around for reads
system.mem_ctrls.wrPerTurnAround::total             7                       # Writes before turning the bus around for reads
system.mem_ctrls.bytesReadWrQ                     384                       # Total number of bytes read from write queue
system.mem_ctrls.bytesReadSys                  742400                       # Total read bytes from the system interface side
system.mem_ctrls.bytesWrittenSys                 9408                       # Total written bytes from the system interface side
system.mem_ctrls.avgRdBWSys                    161.13                       # Average system read bandwidth in MiByte/s
system.mem_ctrls.avgWrBWSys                      2.04                       # Average system write bandwidth in MiByte/s
system.mem_ctrls.totGap                    4607412500                       # Total gap between requests
system.mem_ctrls.avgGap                     392220.35                       # Average gap between requests
system.mem_ctrls.requestorReadBytes::.cpu.inst       112256                       # Per-requestor bytes read from memory
system.mem_ctrls.requestorReadBytes::.cpu.data       629760                       # Per-requestor bytes read from memory
system.mem_ctrls.requestorWriteBytes::.writebacks         7808                       # Per-requestor bytes write to memory
system.mem_ctrls.requestorReadRate::.cpu.inst 24363826.133836746216                       # Per-requestor bytes read from memory rate (Bytes/sec)
system.mem_ctrls.requestorReadRate::.cpu.data 136681898.037031680346                       # Per-requestor bytes read from memory rate (Bytes/sec)
[...]
system.mem_ctrls.dram.bw_total::.cpu.data    136765241                       # Total bandwidth to/from this memory (bytes/s)
system.mem_ctrls.dram.bw_total::total       163170961                       # Total bandwidth to/from this memory (bytes/s)
system.mem_ctrls.dram.readBursts                11594                       # Number of DRAM read bursts
system.mem_ctrls.dram.writeBursts                 122                       # Number of DRAM write bursts
system.mem_ctrls.dram.perBankRdBursts::0          781                       # Per bank write bursts
system.mem_ctrls.dram.perBankRdBursts::1          566                       # Per bank write bursts
system.mem_ctrls.dram.perBankRdBursts::2          805                       # Per bank write bursts
system.mem_ctrls.dram.perBankRdBursts::3          833                       # Per bank write bursts
system.mem_ctrls.dram.perBankRdBursts::4          919                       # Per bank write bursts
system.mem_ctrls.dram.perBankRdBursts::5          932                       # Per bank write bursts
system.mem_ctrls.dram.perBankRdBursts::6          596                       # Per bank write bursts
system.mem_ctrls.dram.perBankRdBursts::7          632                       # Per bank write bursts
system.mem_ctrls.dram.perBankRdBursts::8          711                       # Per bank write bursts
system.mem_ctrls.dram.perBankRdBursts::9          772                       # Per bank write bursts
system.mem_ctrls.dram.perBankRdBursts::10          848                       # Per bank write bursts
system.mem_ctrls.dram.perBankRdBursts::11          614                       # Per bank write bursts
system.mem_ctrls.dram.perBankRdBursts::12          675                       # Per bank write bursts
system.mem_ctrls.dram.perBankRdBursts::13          518                       # Per bank write bursts
system.mem_ctrls.dram.perBankRdBursts::14          717                       # Per bank write bursts
system.mem_ctrls.dram.perBankRdBursts::15          675                       # Per bank write bursts
system.mem_ctrls.dram.perBankWrBursts::0           31                       # Per bank write bursts
system.mem_ctrls.dram.perBankWrBursts::1            9                       # Per bank write bursts
system.mem_ctrls.dram.perBankWrBursts::2            0                       # Per bank write bursts
system.mem_ctrls.dram.perBankWrBursts::3            7                       # Per bank write bursts
system.mem_ctrls.dram.perBankWrBursts::4            8                       # Per bank write bursts
system.mem_ctrls.dram.perBankWrBursts::5           16                       # Per bank write bursts
system.mem_ctrls.dram.perBankWrBursts::6            0                       # Per bank write bursts
system.mem_ctrls.dram.perBankWrBursts::7           10                       # Per bank write bursts
system.mem_ctrls.dram.perBankWrBursts::8            1                       # Per bank write bursts
system.mem_ctrls.dram.perBankWrBursts::9           25                       # Per bank write bursts
system.mem_ctrls.dram.perBankWrBursts::10            0                       # Per bank write bursts
system.mem_ctrls.dram.perBankWrBursts::11            7                       # Per bank write bursts
system.mem_ctrls.dram.perBankWrBursts::12            2                       # Per bank write bursts
system.mem_ctrls.dram.perBankWrBursts::13            0                       # Per bank write bursts
system.mem_ctrls.dram.perBankWrBursts::14            0                       # Per bank write bursts
system.mem_ctrls.dram.perBankWrBursts::15            6                       # Per bank write bursts
system.mem_ctrls.dram.totQLat               123464250                       # Total ticks spent queuing
system.mem_ctrls.dram.totBusLat              57970000                       # Total ticks spent in databus transfers
system.mem_ctrls.dram.totMemAccLat          340851750                       # Total ticks spent from burst creation until serviced by the DRAM
system.mem_ctrls.dram.avgQLat                10648.98                       # Average queueing delay per DRAM burst
system.mem_ctrls.dram.avgBusLat               5000.00                       # Average bus latency per DRAM burst
system.mem_ctrls.dram.avgMemAccLat           29398.98                       # Average memory access latency per DRAM burst
system.mem_ctrls.dram.readRowHits                6985                       # Number of row buffer hits during reads
system.mem_ctrls.dram.writeRowHits                 95                       # Number of row buffer hits during writes
system.mem_ctrls.dram.readRowHitRate            60.25                       # Row buffer hit rate for reads
system.mem_ctrls.dram.writeRowHitRate           77.87                       # Row buffer hit rate for writes
system.mem_ctrls.dram.bytesPerActivate::samples         4627                       # Bytes accessed per row activation
system.mem_ctrls.dram.bytesPerActivate::mean   161.597579                       # Bytes accessed per row activation
system.mem_ctrls.dram.bytesPerActivate::gmean   109.163846                       # Bytes accessed per row activation
system.mem_ctrls.dram.bytesPerActivate::stdev   205.244021                       # Bytes accessed per row activation
system.mem_ctrls.dram.bytesPerActivate::0-127         2655     57.38%     57.38% # Bytes accessed per row activation
system.mem_ctrls.dram.bytesPerActivate::128-255         1232     26.63%     84.01% # Bytes accessed per row activation
system.mem_ctrls.dram.bytesPerActivate::256-383          319      6.89%     90.90% # Bytes accessed per row activation
system.mem_ctrls.dram.bytesPerActivate::384-511          115      2.49%     93.39% # Bytes accessed per row activation
system.mem_ctrls.dram.bytesPerActivate::512-639           68      1.47%     94.86% # Bytes accessed per row activation
system.mem_ctrls.dram.bytesPerActivate::640-767           37      0.80%     95.66% # Bytes accessed per row activation
system.mem_ctrls.dram.bytesPerActivate::768-895           27      0.58%     96.24% # Bytes accessed per row activation
system.mem_ctrls.dram.bytesPerActivate::896-1023           28      0.61%     96.84% # Bytes accessed per row activation
system.mem_ctrls.dram.bytesPerActivate::1024-1151          146      3.16%    100.00% # Bytes accessed per row activation
system.mem_ctrls.dram.bytesPerActivate::total         4627                       # Bytes accessed per row activation
system.mem_ctrls.dram.bytesRead                742016                       # Total number of bytes read from DRAM
system.mem_ctrls.dram.bytesWritten               7808                       # Total number of bytes written to DRAM
system.mem_ctrls.dram.avgRdBW              161.045724                       # Average DRAM read bandwidth in MiBytes/s
system.mem_ctrls.dram.avgWrBW                1.694633                       # Average DRAM write bandwidth in MiBytes/s
system.mem_ctrls.dram.peakBW                 12800.00                       # Theoretical peak bandwidth in MiByte/s
system.mem_ctrls.dram.busUtil                    1.27                       # Data bus utilization in percentage
system.mem_ctrls.dram.busUtilRead                1.26                       # Data bus utilization in percentage for reads
system.mem_ctrls.dram.busUtilWrite               0.01                       # Data bus utilization in percentage for writes
system.mem_ctrls.dram.pageHitRate               60.43                       # Row buffer hit rate, read and write combined
system.mem_ctrls.dram.power_state.pwrStateResidencyTicks::UNDEFINED   4607486500                       # Cumulative time (in ticks) in various power states
system.mem_ctrls.dram.rank0.actEnergy        15686580                       # Energy for activate commands per rank (pJ)
system.mem_ctrls.dram.rank0.preEnergy         8314845                       # Energy for precharge commands per rank (pJ)
system.mem_ctrls.dram.rank0.readEnergy       43296960                       # Energy for read commands per rank (pJ)
system.mem_ctrls.dram.rank0.writeEnergy        422820                       # Energy for write commands per rank (pJ)
system.mem_ctrls.dram.rank0.refreshEnergy 363252240.000000                       # Energy for refresh commands per rank (pJ)
system.mem_ctrls.dram.rank0.actBackEnergy   1652941860                       # Energy for active background per rank (pJ)
system.mem_ctrls.dram.rank0.preBackEnergy    377324160                       # Energy for precharge background per rank (pJ)
system.mem_ctrls.dram.rank0.actPowerDownEnergy            0                       # Energy for active power-down per rank (pJ)
system.mem_ctrls.dram.rank0.prePowerDownEnergy            0                       # Energy for precharge power-down per rank (pJ)
system.mem_ctrls.dram.rank0.selfRefreshEnergy            0                       # Energy for self refresh per rank (pJ)
system.mem_ctrls.dram.rank0.totalEnergy    2461239465                       # Total energy per rank (pJ)
system.mem_ctrls.dram.rank0.averagePower   534.182675                       # Core power per rank (mW)
system.mem_ctrls.dram.rank0.totalIdleTime            0                       # Total Idle time Per DRAM Rank
system.mem_ctrls.dram.rank0.pwrStateTime::IDLE    965226000                       # Time in different power states
system.mem_ctrls.dram.rank0.pwrStateTime::REF    153660000                       # Time in different power states
system.mem_ctrls.dram.rank0.pwrStateTime::SREF            0                       # Time in different power states
system.mem_ctrls.dram.rank0.pwrStateTime::PRE_PDN            0                       # Time in different power states
system.mem_ctrls.dram.rank0.pwrStateTime::ACT   3488600500                       # Time in different power states
system.mem_ctrls.dram.rank0.pwrStateTime::ACT_PDN            0                       # Time in different power states
system.mem_ctrls.dram.rank1.actEnergy        17414460                       # Energy for activate commands per rank (pJ)
system.mem_ctrls.dram.rank1.preEnergy         9244620                       # Energy for precharge commands per rank (pJ)
system.mem_ctrls.dram.rank1.readEnergy       39484200                       # Energy for read commands per rank (pJ)
system.mem_ctrls.dram.rank1.writeEnergy        214020                       # Energy for write commands per rank (pJ)
system.mem_ctrls.dram.rank1.refreshEnergy 363252240.000000                       # Energy for refresh commands per rank (pJ)
system.mem_ctrls.dram.rank1.actBackEnergy   1750639860                       # Energy for active background per rank (pJ)
system.mem_ctrls.dram.rank1.preBackEnergy    295052160                       # Energy for precharge background per rank (pJ)
system.mem_ctrls.dram.rank1.actPowerDownEnergy            0                       # Energy for active power-down per rank (pJ)
system.mem_ctrls.dram.rank1.prePowerDownEnergy            0                       # Energy for precharge power-down per rank (pJ)
system.mem_ctrls.dram.rank1.selfRefreshEnergy            0                       # Energy for self refresh per rank (pJ)
system.mem_ctrls.dram.rank1.totalEnergy    2475301560                       # Total energy per rank (pJ)
system.mem_ctrls.dram.rank1.averagePower   537.234685                       # Core power per rank (mW)
system.mem_ctrls.dram.rank1.totalIdleTime            0                       # Total Idle time Per DRAM Rank
system.mem_ctrls.dram.rank1.pwrStateTime::IDLE    751317000                       # Time in different power states
system.mem_ctrls.dram.rank1.pwrStateTime::REF    153660000                       # Time in different power states
system.mem_ctrls.dram.rank1.pwrStateTime::SREF            0                       # Time in different power states
system.mem_ctrls.dram.rank1.pwrStateTime::PRE_PDN            0                       # Time in different power states
system.mem_ctrls.dram.rank1.pwrStateTime::ACT   3702509500                       # Time in different power states
system.mem_ctrls.dram.rank1.pwrStateTime::ACT_PDN            0                       # Time in different power states
system.mem_ctrls.power_state.pwrStateResidencyTicks::UNDEFINED   4607486500                       # Cumulative time (in ticks) in various power states
system.membus.trans_dist::ReadResp              10072                       # Transaction distribution
system.membus.trans_dist::WritebackDirty          147                       # Transaction distribution
system.membus.trans_dist::CleanEvict              498                       # Transaction distribution
system.membus.trans_dist::ReadExReq              1528                       # Transaction distribution
system.membus.trans_dist::ReadExResp             1528                       # Transaction distribution
system.membus.trans_dist::ReadSharedReq         10072                       # Transaction distribution
system.membus.pkt_count_system.l2.mem_side_port::system.mem_ctrls.port        23845                       # Packet count per connected requestor and responder (bytes)
system.membus.pkt_count_system.l2.mem_side_port::total        23845                       # Packet count per connected requestor and responder (bytes)
system.membus.pkt_count::total                  23845                       # Packet count per connected requestor and responder (bytes)
system.membus.pkt_size_system.l2.mem_side_port::system.mem_ctrls.port       751808                       # Cumulative packet size per connected requestor and responder (bytes)
system.membus.pkt_size_system.l2.mem_side_port::total       751808                       # Cumulative packet size per connected requestor and responder (bytes)
system.membus.pkt_size::total                  751808                       # Cumulative packet size per connected requestor and responder (bytes)
system.membus.snoops                                0                       # Total snoops (count)
system.membus.snoopTraffic                          0                       # Total snoop traffic (bytes)
system.membus.snoop_fanout::samples             11600                       # Request fanout histogram
system.membus.snoop_fanout::mean                    0                       # Request fanout histogram
system.membus.snoop_fanout::stdev                   0                       # Request fanout histogram
system.membus.snoop_fanout::underflows              0      0.00%      0.00% # Request fanout histogram
system.membus.snoop_fanout::0                   11600    100.00%    100.00% # Request fanout histogram
system.membus.snoop_fanout::1                       0      0.00%    100.00% # Request fanout histogram
system.membus.snoop_fanout::overflows               0      0.00%    100.00% # Request fanout histogram
system.membus.snoop_fanout::min_value               0                       # Request fanout histogram
system.membus.snoop_fanout::max_value               0                       # Request fanout histogram
system.membus.snoop_fanout::total               11600                       # Request fanout histogram
system.membus.power_state.pwrStateResidencyTicks::UNDEFINED   4607486500                       # Cumulative time (in ticks) in various power states
system.membus.reqLayer2.occupancy            12845000                       # Layer occupancy (ticks)
system.membus.reqLayer2.utilization               0.3                       # Layer utilization (%)
system.membus.respLayer1.occupancy           62273750                       # Layer occupancy (ticks)
system.membus.respLayer1.utilization              1.4                       # Layer utilization (%)
system.tol2bus.trans_dist::ReadResp             12984                       # Transaction distribution
system.tol2bus.trans_dist::WritebackDirty         2292                       # Transaction distribution
system.tol2bus.trans_dist::WritebackClean           62                       # Transaction distribution
system.tol2bus.trans_dist::CleanEvict            9977                       # Transaction distribution
system.tol2bus.trans_dist::ReadExReq             1914                       # Transaction distribution
system.tol2bus.trans_dist::ReadExResp            1914                       # Transaction distribution
system.tol2bus.trans_dist::ReadCleanReq          1756                       # Transaction distribution
system.tol2bus.trans_dist::ReadSharedReq        11228                       # Transaction distribution
system.tol2bus.pkt_count_system.cpu.icache.mem_side_port::system.l2.cpu_side_port         3574                       # Packet count per connected requestor and responder (bytes)
system.tol2bus.pkt_count_system.cpu.dcache.mem_side_port::system.l2.cpu_side_port        37378                       # Packet count per connected requestor and responder (bytes)
system.tol2bus.pkt_count::total                 40952                       # Packet count per connected requestor and responder (bytes)
system.tol2bus.pkt_size_system.cpu.icache.mem_side_port::system.l2.cpu_side_port       116352                       # Cumulative packet size per connected requestor and responder (bytes)
system.tol2bus.pkt_size_system.cpu.dcache.mem_side_port::system.l2.cpu_side_port       978368                       # Cumulative packet size per connected requestor and responder (bytes)
system.tol2bus.pkt_size::total                1094720                       # Cumulative packet size per connected requestor and responder (bytes)
system.tol2bus.snoops                            1175                       # Total snoops (count)
system.tol2bus.snoopTraffic                      9408                       # Total snoop traffic (bytes)
system.tol2bus.snoop_fanout::samples            16073                       # Request fanout histogram
system.tol2bus.snoop_fanout::mean            0.038823                       # Request fanout histogram
system.tol2bus.snoop_fanout::stdev           0.193179                       # Request fanout histogram
system.tol2bus.snoop_fanout::underflows             0      0.00%      0.00% # Request fanout histogram
system.tol2bus.snoop_fanout::0                  15449     96.12%     96.12% # Request fanout histogram
system.tol2bus.snoop_fanout::1                    624      3.88%    100.00% # Request fanout histogram
system.tol2bus.snoop_fanout::2                      0      0.00%    100.00% # Request fanout histogram
system.tol2bus.snoop_fanout::3                      0      0.00%    100.00% # Request fanout histogram
system.tol2bus.snoop_fanout::4                      0      0.00%    100.00% # Request fanout histogram
system.tol2bus.snoop_fanout::overflows              0      0.00%    100.00% # Request fanout histogram
system.tol2bus.snoop_fanout::min_value              0                       # Request fanout histogram
system.tol2bus.snoop_fanout::max_value              1                       # Request fanout histogram
system.tol2bus.snoop_fanout::total              16073                       # Request fanout histogram
system.tol2bus.power_state.pwrStateResidencyTicks::UNDEFINED   4607486500                       # Cumulative time (in ticks) in various power states
system.tol2bus.reqLayer0.occupancy           15234000                       # Layer occupancy (ticks)
system.tol2bus.reqLayer0.utilization              0.3                       # Layer utilization (%)
system.tol2bus.respLayer0.occupancy           2634000                       # Layer occupancy (ticks)
system.tol2bus.respLayer0.utilization             0.1                       # Layer utilization (%)
system.tol2bus.respLayer1.occupancy          19713000                       # Layer occupancy (ticks)
system.tol2bus.respLayer1.utilization             0.4                       # Layer utilization (%)
system.voltage_domain.voltage                       1                       # Voltage in Volts

---------- End Simulation Statistics   ----------
