
---------- Begin Simulation Statistics ----------
final_tick                               204120896500                       # Number of ticks from beginning of simulation (restored from checkpoints and never reset)
host_inst_rate                                 677918                       # Simulator instruction rate (inst/s)
host_mem_usage                                 654868                       # Number of bytes of host memory used
host_op_rate                                   985138                       # Simulator op (including micro ops) rate (op/s)
host_seconds                                   147.51                       # Real time elapsed on the host
host_tick_rate                             1383769895                       # Simulator tick rate (ticks/s)
sim_freq                                 1000000000000                       # Frequency of simulated ticks
sim_insts                                   100000001                       # Number of instructions simulated
sim_ops                                     145318341                       # Number of ops (including micro ops) simulated
sim_seconds                                  0.204121                       # Number of seconds simulated
sim_ticks                                204120896500                       # Number of ticks simulated
system.cpu.Branches                           8195186                       # Number of branches fetched
system.cpu.committedInsts                   100000001                       # Number of instructions committed
system.cpu.committedOps                     145318341                       # Number of ops (including micro ops) committed
system.cpu.idle_fraction                            0                       # Percentage of idle cycles
system.cpu.not_idle_fraction                        1                       # Percentage of non-idle cycles
system.cpu.numCycles                        408241793                       # number of cpu cycles simulated
system.cpu.numWorkItemsCompleted                    0                       # number of work items this cpu completed
system.cpu.numWorkItemsStarted                      0                       # number of work items this cpu started
system.cpu.num_busy_cycles                  408241793                       # Number of busy cycles
system.cpu.num_cc_register_reads             39537544                       # number of times the CC registers were read
system.cpu.num_cc_register_writes            53965566                       # number of times the CC registers were written
system.cpu.num_conditional_control_insts      6832024                       # number of instructions that are conditional controls
system.cpu.num_fp_alu_accesses                  34277                       # Number of float alu accesses
system.cpu.num_fp_insts                         34277                       # number of float instructions
system.cpu.num_fp_register_reads                18199                       # number of times the floating registers were read
system.cpu.num_fp_register_writes               17287                       # number of times the floating registers were written
system.cpu.num_func_calls                      343631                       # number of times a function call or return occured
system.cpu.num_idle_cycles                          0                       # Number of idle cycles
system.cpu.num_int_alu_accesses             145039772                       # Number of integer alu accesses
system.cpu.num_int_insts                    145039772                       # number of integer instructions
system.cpu.num_int_register_reads           331806094                       # number of times the integer registers were read
system.cpu.num_int_register_writes          123290475                       # number of times the integer registers were written
system.cpu.num_load_insts                    42443726                       # Number of load instructions
system.cpu.num_mem_refs                      55981663                       # number of memory refs
system.cpu.num_store_insts                   13537937                       # Number of store instructions
system.cpu.num_vec_alu_accesses                     0                       # Number of vector alu accesses
system.cpu.num_vec_insts                            0                       # number of vector instructions
system.cpu.num_vec_register_reads                   0                       # number of times the vector registers were read
system.cpu.num_vec_register_writes                  0                       # number of times the vector registers were written
system.cpu.op_class::No_OpClass                180089      0.12%      0.12% # Class of executed instruction
system.cpu.op_class::IntAlu                  89164061     61.35%     61.48% # Class of executed instruction
system.cpu.op_class::IntMult                      144      0.00%     61.48% # Class of executed instruction
system.cpu.op_class::IntDiv                       111      0.00%     61.48% # Class of executed instruction
system.cpu.op_class::FloatAdd                     147      0.00%     61.48% # Class of executed instruction
system.cpu.op_class::FloatCmp                       0      0.00%     61.48% # Class of executed instruction
system.cpu.op_class::FloatCvt                       0      0.00%     61.48% # Class of executed instruction
system.cpu.op_class::FloatMult                      0      0.00%     61.48% # Class of executed instruction
system.cpu.op_class::FloatMultAcc                   0      0.00%     61.48% # Class of executed instruction
system.cpu.op_class::FloatDiv                       0      0.00%     61.48% # Class of executed instruction
system.cpu.op_class::FloatMisc                      0      0.00%     61.48% # Class of executed instruction
system.cpu.op_class::FloatSqrt                      0      0.00%     61.48% # Class of executed instruction
system.cpu.op_class::SimdAdd                        0      0.00%     61.48% # Class of executed instruction
system.cpu.op_class::SimdAddAcc                     0      0.00%     61.48% # Class of executed instruction
system.cpu.op_class::SimdAlu                      138      0.00%     61.48% # Class of executed instruction
system.cpu.op_class::SimdCmp                        0      0.00%     61.48% # Class of executed instruction
system.cpu.op_class::SimdCvt                      102      0.00%     61.48% # Class of executed instruction
system.cpu.op_class::SimdMisc                     303      0.00%     61.48% # Class of executed instruction
system.cpu.op_class::SimdMult                       0      0.00%     61.48% # Class of executed instruction
system.cpu.op_class::SimdMultAcc                    0      0.00%     61.48% # Class of executed instruction
system.cpu.op_class::SimdShift                      0      0.00%     61.48% # Class of executed instruction
system.cpu.op_class::SimdShiftAcc                   0      0.00%     61.48% # Class of executed instruction
system.cpu.op_class::SimdDiv                        0      0.00%     61.48% # Class of executed instruction
system.cpu.op_class::SimdSqrt                       0      0.00%     61.48% # Class of executed instruction
system.cpu.op_class::SimdFloatAdd                   0      0.00%     61.48% # Class of executed instruction
system.cpu.op_class::SimdFloatAlu                   0      0.00%     61.48% # Class of executed instruction
system.cpu.op_class::SimdFloatCmp                   0      0.00%     61.48% # Class of executed instruction
system.cpu.op_class::SimdFloatCvt                   0      0.00%     61.48% # Class of executed instruction
system.cpu.op_class::SimdFloatDiv                   0      0.00%     61.48% # Class of executed instruction
system.cpu.op_class::SimdFloatMisc                  0      0.00%     61.48% # Class of executed instruction
system.cpu.op_class::SimdFloatMult                  0      0.00%     61.48% # Class of executed instruction
system.cpu.op_class::SimdFloatMultAcc               0      0.00%     61.48% # Class of executed instruction
system.cpu.op_class::SimdFloatSqrt                  0      0.00%     61.48% # Class of executed instruction
system.cpu.op_class::SimdReduceAdd                  0      0.00%     61.48% # Class of executed instruction
system.cpu.op_class::SimdReduceAlu                  0      0.00%     61.48% # Class of executed instruction
system.cpu.op_class::SimdReduceCmp                  0      0.00%     61.48% # Class of executed instruction
system.cpu.op_class::SimdFloatReduceAdd             0      0.00%     61.48% # Class of executed instruction
system.cpu.op_class::SimdFloatReduceCmp             0      0.00%     61.48% # Class of executed instruction
system.cpu.op_class::SimdAes                        0      0.00%     61.48% # Class of executed instruction
system.cpu.op_class::SimdAesMix                     0      0.00%     61.48% # Class of executed instruction
system.cpu.op_class::SimdSha1Hash                   0      0.00%     61.48% # Class of executed instruction
system.cpu.op_class::SimdSha1Hash2                  0      0.00%     61.48% # Class of executed instruction
system.cpu.op_class::SimdSha256Hash                 0      0.00%     61.48% # Class of executed instruction
system.cpu.op_class::SimdSha256Hash2                0      0.00%     61.48% # Class of executed instruction
system.cpu.op_class::SimdShaSigma2                  0      0.00%     61.48% # Class of executed instruction
system.cpu.op_class::SimdShaSigma3                  0      0.00%     61.48% # Class of executed instruction
system.cpu.op_class::SimdPredAlu                    0      0.00%     61.48% # Class of executed instruction
system.cpu.op_class::MemRead                 42427211     29.19%     90.67% # Class of executed instruction
system.cpu.op_class::MemWrite                13521029      9.30%     99.98% # Class of executed instruction
system.cpu.op_class::FloatMemRead               16515      0.01%     99.99% # Class of executed instruction
system.cpu.op_class::FloatMemWrite              16908      0.01%    100.00% # Class of executed instruction
system.cpu.op_class::IprAccess                      0      0.00%    100.00% # Class of executed instruction
system.cpu.op_class::InstPrefetch                   0      0.00%    100.00% # Class of executed instruction
system.cpu.op_class::total                  145326758                       # Class of executed instruction
system.cpu.workload.numSyscalls                    23                       # Number of system calls
system.membus.snoop_filter.hit_multi_requests            0                       # Number of requests hitting in the snoop filter with multiple (>1) holders of the requested data.
system.membus.snoop_filter.hit_multi_snoops            0                       # Number of snoops hitting in the snoop filter with multiple (>1) holders of the requested data.
system.membus.snoop_filter.hit_single_requests        26731                       # Number of requests hitting in the snoop filter with a single holder of the requested data.
system.membus.snoop_filter.hit_single_snoops            0                       # Number of snoops hitting in the snoop filter with a single holder of the requested data.
system.membus.snoop_filter.tot_requests         70366                       # Total number of requests made to the snoop filter.
system.membus.snoop_filter.tot_snoops               0                       # Total number of snoops made to the snoop filter.
system.tol2bus.snoop_filter.hit_multi_requests            0                       # Number of requests hitting in the snoop filter with multiple (>1) holders of the requested data.
system.tol2bus.snoop_filter.hit_multi_snoops            0                       # Number of snoops hitting in the snoop filter with multiple (>1) holders of the requested data.
system.tol2bus.snoop_filter.hit_single_requests       553963                       # Number of requests hitting in the snoop filter with a single holder of the requested data.
system.tol2bus.snoop_filter.hit_single_snoops         8353                       # Number of snoops hitting in the snoop filter with a single holder of the requested data.
system.tol2bus.snoop_filter.tot_requests      1109784                       # Total number of requests made to the snoop filter.
system.tol2bus.snoop_filter.tot_snoops           8353                       # Total number of snoops made to the snoop filter.
system.clk_domain.clock                          1000                       # Clock period in ticks
system.cpu.dcache.demand_hits::.cpu.data     55416428                       # number of demand (read+write) hits
system.cpu.dcache.demand_hits::total         55416428                       # number of demand (read+write) hits
system.cpu.dcache.overall_hits::.cpu.data     55416729                       # number of overall hits
system.cpu.dcache.overall_hits::total        55416729                       # number of overall hits
system.cpu.dcache.demand_misses::.cpu.data       552814                       # number of demand (read+write) misses
system.cpu.dcache.demand_misses::total         552814                       # number of demand (read+write) misses
system.cpu.dcache.overall_misses::.cpu.data       556548                       # number of overall misses
system.cpu.dcache.overall_misses::total        556548                       # number of overall misses
system.cpu.dcache.demand_miss_latency::.cpu.data  10130536000                       # number of demand (read+write) miss cycles
system.cpu.dcache.demand_miss_latency::total  10130536000                       # number of demand (read+write) miss cycles
system.cpu.dcache.overall_miss_latency::.cpu.data  10130536000                       # number of overall miss cycles
system.cpu.dcache.overall_miss_latency::total  10130536000                       # number of overall miss cycles
system.cpu.dcache.demand_accesses::.cpu.data     55969242                       # number of demand (read+write) accesses
system.cpu.dcache.demand_accesses::total     55969242                       # number of demand (read+write) accesses
system.cpu.dcache.overall_accesses::.cpu.data     55973277                       # number of overall (read+write) accesses
system.cpu.dcache.overall_accesses::total     55973277                       # number of overall (read+write) accesses
system.cpu.dcache.demand_miss_rate::.cpu.data     0.009877                       # miss rate for demand accesses
system.cpu.dcache.demand_miss_rate::total     0.009877                       # miss rate for demand accesses
system.cpu.dcache.overall_miss_rate::.cpu.data     0.009943                       # miss rate for overall accesses
system.cpu.dcache.overall_miss_rate::total     0.009943                       # miss rate for overall accesses
system.cpu.dcache.demand_avg_miss_latency::.cpu.data 18325.396969                       # average overall miss latency
system.cpu.dcache.demand_avg_miss_latency::total 18325.396969                       # average overall miss latency
system.cpu.dcache.overall_avg_miss_latency::.cpu.data 18202.447947                       # average overall miss latency
system.cpu.dcache.overall_avg_miss_latency::total 18202.447947                       # average overall miss latency
system.cpu.dcache.blocked_cycles::no_mshrs          548                       # number of cycles access was blocked
system.cpu.dcache.blocked_cycles::no_targets            0                       # number of cycles access was blocked
system.cpu.dcache.blocked::no_mshrs                 4                       # number of cycles access was blocked
system.cpu.dcache.blocked::no_targets               0                       # number of cycles access was blocked
system.cpu.dcache.avg_blocked_cycles::no_mshrs          137                       # average number of cycles each access was blocked
system.cpu.dcache.avg_blocked_cycles::no_targets          nan                       # average number of cycles each access was blocked
system.cpu.dcache.writebacks::.writebacks       403382                       # number of writebacks
system.cpu.dcache.writebacks::total            403382                       # number of writebacks
system.cpu.dcache.demand_mshr_hits::.cpu.data            9                       # number of demand (read+write) MSHR hits
system.cpu.dcache.demand_mshr_hits::total            9                       # number of demand (read+write) MSHR hits
system.cpu.dcache.overall_mshr_hits::.cpu.data            9                       # number of overall MSHR hits
system.cpu.dcache.overall_mshr_hits::total            9                       # number of overall MSHR hits
system.cpu.dcache.demand_mshr_misses::.cpu.data       552805                       # number of demand (read+write) MSHR misses
system.cpu.dcache.demand_mshr_misses::total       552805                       # number of demand (read+write) MSHR misses
system.cpu.dcache.overall_mshr_misses::.cpu.data       554740                       # number of overall MSHR misses
system.cpu.dcache.overall_mshr_misses::total       554740                       # number of overall MSHR misses
system.cpu.dcache.demand_mshr_miss_latency::.cpu.data   9575593000                       # number of demand (read+write) MSHR miss cycles
system.cpu.dcache.demand_mshr_miss_latency::total   9575593000                       # number of demand (read+write) MSHR miss cycles
system.cpu.dcache.overall_mshr_miss_latency::.cpu.data   9720730500                       # number of overall MSHR miss cycles
system.cpu.dcache.overall_mshr_miss_latency::total   9720730500                       # number of overall MSHR miss cycles
system.cpu.dcache.demand_mshr_miss_rate::.cpu.data     0.009877                       # mshr miss rate for demand accesses
system.cpu.dcache.demand_mshr_miss_rate::total     0.009877                       # mshr miss rate for demand accesses
system.cpu.dcache.overall_mshr_miss_rate::.cpu.data     0.009911                       # mshr miss rate for overall accesses
system.cpu.dcache.overall_mshr_miss_rate::total     0.009911                       # mshr miss rate for overall accesses
system.cpu.dcache.demand_avg_mshr_miss_latency::.cpu.data 17321.827769                       # average overall mshr miss latency
system.cpu.dcache.demand_avg_mshr_miss_latency::total 17321.827769                       # average overall mshr miss latency
system.cpu.dcache.overall_avg_mshr_miss_latency::.cpu.data 17523.038721                       # average overall mshr miss latency
system.cpu.dcache.overall_avg_mshr_miss_latency::total 17523.038721                       # average overall mshr miss latency
system.cpu.dcache.replacements                 553716                       # number of replacements
system.cpu.dcache.ReadReq_hits::.cpu.data     42030125                       # number of ReadReq hits
system.cpu.dcache.ReadReq_hits::total        42030125                       # number of ReadReq hits
system.cpu.dcache.ReadReq_misses::.cpu.data       409568                       # number of ReadReq misses
system.cpu.dcache.ReadReq_misses::total        409568                       # number of ReadReq misses
system.cpu.dcache.ReadReq_miss_latency::.cpu.data   6681835000                       # number of ReadReq miss cycles
system.cpu.dcache.ReadReq_miss_latency::total   6681835000                       # number of ReadReq miss cycles
system.cpu.dcache.ReadReq_accesses::.cpu.data     42439693                       # number of ReadReq accesses(hits+misses)
system.cpu.dcache.ReadReq_accesses::total     42439693                       # number of ReadReq accesses(hits+misses)
system.cpu.dcache.ReadReq_miss_rate::.cpu.data     0.009651                       # miss rate for ReadReq accesses
system.cpu.dcache.ReadReq_miss_rate::total     0.009651                       # miss rate for ReadReq accesses
system.cpu.dcache.ReadReq_avg_miss_latency::.cpu.data 16314.348289                       # average ReadReq miss latency
system.cpu.dcache.ReadReq_avg_miss_latency::total 16314.348289                       # average ReadReq miss latency
system.cpu.dcache.ReadReq_mshr_hits::.cpu.data            9                       # number of ReadReq MSHR hits
system.cpu.dcache.ReadReq_mshr_hits::total            9                       # number of ReadReq MSHR hits
system.cpu.dcache.ReadReq_mshr_misses::.cpu.data       409559                       # number of ReadReq MSHR misses
system.cpu.dcache.ReadReq_mshr_misses::total       409559                       # number of ReadReq MSHR misses
system.cpu.dcache.ReadReq_mshr_miss_latency::.cpu.data   6270138000                       # number of ReadReq MSHR miss cycles
system.cpu.dcache.ReadReq_mshr_miss_latency::total   6270138000                       # number of ReadReq MSHR miss cycles
system.cpu.dcache.ReadReq_mshr_miss_rate::.cpu.data     0.009650                       # mshr miss rate for ReadReq accesses
system.cpu.dcache.ReadReq_mshr_miss_rate::total     0.009650                       # mshr miss rate for ReadReq accesses
system.cpu.dcache.ReadReq_avg_mshr_miss_latency::.cpu.data 15309.486545                       # average ReadReq mshr miss latency
system.cpu.dcache.ReadReq_avg_mshr_miss_latency::total 15309.486545                       # average ReadReq mshr miss latency
system.cpu.dcache.WriteReq_hits::.cpu.data     13386303                       # number of WriteReq hits
system.cpu.dcache.WriteReq_hits::total       13386303                       # number of WriteReq hits
system.cpu.dcache.WriteReq_misses::.cpu.data       143246                       # number of WriteReq misses
system.cpu.dcache.WriteReq_misses::total       143246                       # number of WriteReq misses
system.cpu.dcache.WriteReq_miss_latency::.cpu.data   3448701000                       # number of WriteReq miss cycles
system.cpu.dcache.WriteReq_miss_latency::total   3448701000                       # number of WriteReq miss cycles
system.cpu.dcache.WriteReq_accesses::.cpu.data     13529549                       # number of WriteReq accesses(hits+misses)
system.cpu.dcache.WriteReq_accesses::total     13529549                       # number of WriteReq accesses(hits+misses)
system.cpu.dcache.WriteReq_miss_rate::.cpu.data     0.010588                       # miss rate for WriteReq accesses
system.cpu.dcache.WriteReq_miss_rate::total     0.010588                       # miss rate for WriteReq accesses
system.cpu.dcache.WriteReq_avg_miss_latency::.cpu.data 24075.373832                       # average WriteReq miss latency
system.cpu.dcache.WriteReq_avg_miss_latency::total 24075.373832                       # average WriteReq miss latency
system.cpu.dcache.WriteReq_mshr_misses::.cpu.data       143246                       # number of WriteReq MSHR misses
system.cpu.dcache.WriteReq_mshr_misses::total       143246                       # number of WriteReq MSHR misses
system.cpu.dcache.WriteReq_mshr_miss_latency::.cpu.data   3305455000                       # number of WriteReq MSHR miss cycles
system.cpu.dcache.WriteReq_mshr_miss_latency::total   3305455000                       # number of WriteReq MSHR miss cycles
system.cpu.dcache.WriteReq_mshr_miss_rate::.cpu.data     0.010588                       # mshr miss rate for WriteReq accesses
system.cpu.dcache.WriteReq_mshr_miss_rate::total     0.010588                       # mshr miss rate for WriteReq accesses
system.cpu.dcache.WriteReq_avg_mshr_miss_latency::.cpu.data 23075.373832                       # average WriteReq mshr miss latency
system.cpu.dcache.WriteReq_avg_mshr_miss_latency::total 23075.373832                       # average WriteReq mshr miss latency
system.cpu.dcache.SoftPFReq_hits::.cpu.data          301                       # number of SoftPFReq hits
system.cpu.dcache.SoftPFReq_hits::total           301                       # number of SoftPFReq hits
system.cpu.dcache.SoftPFReq_misses::.cpu.data         3734                       # number of SoftPFReq misses
system.cpu.dcache.SoftPFReq_misses::total         3734                       # number of SoftPFReq misses
system.cpu.dcache.SoftPFReq_accesses::.cpu.data         4035                       # number of SoftPFReq accesses(hits+misses)
system.cpu.dcache.SoftPFReq_accesses::total         4035                       # number of SoftPFReq accesses(hits+misses)
system.cpu.dcache.SoftPFReq_miss_rate::.cpu.data     0.925403                       # miss rate for SoftPFReq accesses
system.cpu.dcache.SoftPFReq_miss_rate::total     0.925403                       # miss rate for SoftPFReq accesses
system.cpu.dcache.SoftPFReq_mshr_misses::.cpu.data         1935                       # number of SoftPFReq MSHR misses
system.cpu.dcache.SoftPFReq_mshr_misses::total         1935                       # number of SoftPFReq MSHR misses
system.cpu.dcache.SoftPFReq_mshr_miss_latency::.cpu.data    145137500                       # number of SoftPFReq MSHR miss cycles
system.cpu.dcache.SoftPFReq_mshr_miss_latency::total    145137500                       # number of SoftPFReq MSHR miss cycles
system.cpu.dcache.SoftPFReq_mshr_miss_rate::.cpu.data     0.479554                       # mshr miss rate for SoftPFReq accesses
system.cpu.dcache.SoftPFReq_mshr_miss_rate::total     0.479554                       # mshr miss rate for SoftPFReq accesses
system.cpu.dcache.SoftPFReq_avg_mshr_miss_latency::.cpu.data 75006.459948                       # average SoftPFReq mshr miss latency
system.cpu.dcache.SoftPFReq_avg_mshr_miss_latency::total 75006.459948                       # average SoftPFReq mshr miss latency
system.cpu.dcache.power_state.pwrStateResidencyTicks::UNDEFINED 204120896500                       # Cumulative time (in ticks) in various power states
system.cpu.dcache.tags.tagsinuse          1016.061139                       # Cycle average of tags in use
system.cpu.dcache.tags.total_refs            55971469                       # Total number of references to valid blocks.
system.cpu.dcache.tags.sampled_refs            554740                       # Sample count of references to valid blocks.
system.cpu.dcache.tags.avg_refs            100.896761                       # Average number of references to valid blocks.
system.cpu.dcache.tags.warmup_cycle            177500                       # Cycle when the warmup percentage was hit.
system.cpu.dcache.tags.occ_blocks::.cpu.data  1016.061139                       # Average occupied blocks per requestor
system.cpu.dcache.tags.occ_percent::.cpu.data     0.992247                       # Average percentage of cache occupancy
system.cpu.dcache.tags.occ_percent::total     0.992247                       # Average percentage of cache occupancy
system.cpu.dcache.tags.occ_task_id_blocks::1024         1024                       # Occupied blocks per task id
system.cpu.dcache.tags.age_task_id_blocks_1024::0            4                       # Occupied blocks per task id
system.cpu.dcache.tags.age_task_id_blocks_1024::1           24                       # Occupied blocks per task id
system.cpu.dcache.tags.age_task_id_blocks_1024::2          257                       # Occupied blocks per task id
system.cpu.dcache.tags.age_task_id_blocks_1024::3          578                       # Occupied blocks per task id
system.cpu.dcache.tags.age_task_id_blocks_1024::4          161                       # Occupied blocks per task id
system.cpu.dcache.tags.occ_task_id_percent::1024            1                       # Percentage of cache occupancy per task id
system.cpu.dcache.tags.tag_accesses         112501294                       # Number of tag accesses
system.cpu.dcache.tags.data_accesses        112501294                       # Number of data accesses
system.cpu.dcache.tags.power_state.pwrStateResidencyTicks::UNDEFINED 204120896500                       # Cumulative time (in ticks) in various power states
system.cpu.dtb.rdAccesses                    42443730                       # TLB accesses on read requests
system.cpu.dtb.wrAccesses                    13537941                       # TLB accesses on write requests
system.cpu.dtb.rdMisses                         77228                       # TLB misses on read requests
system.cpu.dtb.wrMisses                         75333                       # TLB misses on write requests
system.cpu.dtb.walker.power_state.pwrStateResidencyTicks::UNDEFINED 204120896500                       # Cumulative time (in ticks) in various power states
system.cpu.dtb_walker_cache.blocked_cycles::no_mshrs            0                       # number of cycles access was blocked
system.cpu.dtb_walker_cache.blocked_cycles::no_targets            0                       # number of cycles access was blocked
system.cpu.dtb_walker_cache.blocked::no_mshrs            0                       # number of cycles access was blocked
system.cpu.dtb_walker_cache.blocked::no_targets            0                       # number of cycles access was blocked
system.cpu.dtb_walker_cache.avg_blocked_cycles::no_mshrs          nan                       # average number of cycles each access was blocked
system.cpu.dtb_walker_cache.avg_blocked_cycles::no_targets          nan                       # average number of cycles each access was blocked
system.cpu.dtb_walker_cache.replacements            0                       # number of replacements
system.cpu.dtb_walker_cache.power_state.pwrStateResidencyTicks::UNDEFINED 204120896500                       # Cumulative time (in ticks) in various power states
system.cpu.dtb_walker_cache.tags.tagsinuse            0                       # Cycle average of tags in use
system.cpu.dtb_walker_cache.tags.total_refs            0                       # Total number of references to valid blocks.
system.cpu.dtb_walker_cache.tags.sampled_refs            0                       # Sample count of references to valid blocks.
system.cpu.dtb_walker_cache.tags.avg_refs          nan                       # Average number of references to valid blocks.
system.cpu.dtb_walker_cache.tags.warmup_cycle            0                       # Cycle when the warmup percentage was hit.
system.cpu.dtb_walker_cache.tags.tag_accesses            0                       # Number of tag accesses
system.cpu.dtb_walker_cache.tags.data_accesses            0                       # Number of data accesses
system.cpu.dtb_walker_cache.tags.power_state.pwrStateResidencyTicks::UNDEFINED 204120896500                       # Cumulative time (in ticks) in various power states
system.cpu.icache.demand_hits::.cpu.inst    138482180                       # number of demand (read+write) hits
system.cpu.icache.demand_hits::total        138482180                       # number of demand (read+write) hits
system.cpu.icache.overall_hits::.cpu.inst    138482180                       # number of overall hits
system.cpu.icache.overall_hits::total       138482180                       # number of overall hits
system.cpu.icache.demand_misses::.cpu.inst         1081                       # number of demand (read+write) misses
system.cpu.icache.demand_misses::total           1081                       # number of demand (read+write) misses
system.cpu.icache.overall_misses::.cpu.inst         1081                       # number of overall misses
system.cpu.icache.overall_misses::total          1081                       # number of overall misses
system.cpu.icache.demand_miss_latency::.cpu.inst     87509500                       # number of demand (read+write) miss cycles
system.cpu.icache.demand_miss_latency::total     87509500                       # number of demand (read+write) miss cycles
system.cpu.icache.overall_miss_latency::.cpu.inst     87509500                       # number of overall miss cycles
system.cpu.icache.overall_miss_latency::total     87509500                       # number of overall miss cycles
system.cpu.icache.demand_accesses::.cpu.inst    138483261                       # number of demand (read+write) accesses
system.cpu.icache.demand_accesses::total    138483261                       # number of demand (read+write) accesses
system.cpu.icache.overall_accesses::.cpu.inst    138483261                       # number of overall (read+write) accesses
system.cpu.icache.overall_accesses::total    138483261                       # number of overall (read+write) accesses
system.cpu.icache.demand_miss_rate::.cpu.inst     0.000008                       # miss rate for demand accesses
system.cpu.icache.demand_miss_rate::total     0.000008                       # miss rate for demand accesses
system.cpu.icache.overall_miss_rate::.cpu.inst     0.000008                       # miss rate for overall accesses
system.cpu.icache.overall_miss_rate::total     0.000008                       # miss rate for overall accesses
system.cpu.icache.demand_avg_miss_latency::.cpu.inst 80952.358927                       # average overall miss latency
system.cpu.icache.demand_avg_miss_latency::total 80952.358927                       # average overall miss latency
system.cpu.icache.overall_avg_miss_latency::.cpu.inst 80952.358927                       # average overall miss latency
system.cpu.icache.overall_avg_miss_latency::total 80952.358927                       # average overall miss latency
system.cpu.icache.blocked_cycles::no_mshrs            0                       # number of cycles access was blocked
system.cpu.icache.blocked_cycles::no_targets            0                       # number of cycles access was blocked
system.cpu.icache.blocked::no_mshrs                 0                       # number of cycles access was blocked
system.cpu.icache.blocked::no_targets               0                       # number of cycles access was blocked
system.cpu.icache.avg_blocked_cycles::no_mshrs          nan                       # average number of cycles each access was blocked
system.cpu.icache.avg_blocked_cycles::no_targets          nan                       # average number of cycles each access was blocked
system.cpu.icache.writebacks::.writebacks          247                       # number of writebacks
system.cpu.icache.writebacks::total               247                       # number of writebacks
system.cpu.icache.demand_mshr_misses::.cpu.inst         1081                       # number of demand (read+write) MSHR misses
system.cpu.icache.demand_mshr_misses::total         1081                       # number of demand (read+write) MSHR misses
system.cpu.icache.overall_mshr_misses::.cpu.inst         1081                       # number of overall MSHR misses
system.cpu.icache.overall_mshr_misses::total         1081                       # number of overall MSHR misses
system.cpu.icache.demand_mshr_miss_latency::.cpu.inst     86428500                       # number of demand (read+write) MSHR miss cycles
system.cpu.icache.demand_mshr_miss_latency::total     86428500                       # number of demand (read+write) MSHR miss cycles
system.cpu.icache.overall_mshr_miss_latency::.cpu.inst     86428500                       # number of overall MSHR miss cycles
system.cpu.icache.overall_mshr_miss_latency::total     86428500                       # number of overall MSHR miss cycles
system.cpu.icache.demand_mshr_miss_rate::.cpu.inst     0.000008                       # mshr miss rate for demand accesses
system.cpu.icache.demand_mshr_miss_rate::total     0.000008                       # mshr miss rate for demand accesses
system.cpu.icache.overall_mshr_miss_rate::.cpu.inst     0.000008                       # mshr miss rate for overall accesses
system.cpu.icache.overall_mshr_miss_rate::total     0.000008                       # mshr miss rate for overall accesses
system.cpu.icache.demand_avg_mshr_miss_latency::.cpu.inst 79952.358927                       # average overall mshr miss latency
system.cpu.icache.demand_avg_mshr_miss_latency::total 79952.358927                       # average overall mshr miss latency
system.cpu.icache.overall_avg_mshr_miss_latency::.cpu.inst 79952.358927                       # average overall mshr miss latency
system.cpu.icache.overall_avg_mshr_miss_latency::total 79952.358927                       # average overall mshr miss latency
system.cpu.icache.replacements                    247                       # number of replacements
system.cpu.icache.ReadReq_hits::.cpu.inst    138482180                       # number of ReadReq hits
system.cpu.icache.ReadReq_hits::total       138482180                       # number of ReadReq hits
system.cpu.icache.ReadReq_misses::.cpu.inst         1081                       # number of ReadReq misses
system.cpu.icache.ReadReq_misses::total          1081                       # number of ReadReq misses
system.cpu.icache.ReadReq_miss_latency::.cpu.inst     87509500                       # number of ReadReq miss cycles
system.cpu.icache.ReadReq_miss_latency::total     87509500                       # number of ReadReq miss cycles
system.cpu.icache.ReadReq_accesses::.cpu.inst    138483261                       # number of ReadReq accesses(hits+misses)
system.cpu.icache.ReadReq_accesses::total    138483261                       # number of ReadReq accesses(hits+misses)
system.cpu.icache.ReadReq_miss_rate::.cpu.inst     0.000008                       # miss rate for ReadReq accesses
system.cpu.icache.ReadReq_miss_rate::total     0.000008                       # miss rate for ReadReq accesses
system.cpu.icache.ReadReq_avg_miss_latency::.cpu.inst 80952.358927                       # average ReadReq miss latency
system.cpu.icache.ReadReq_avg_miss_latency::total 80952.358927                       # average ReadReq miss latency
system.cpu.icache.ReadReq_mshr_misses::.cpu.inst         1081                       # number of ReadReq MSHR misses
system.cpu.icache.ReadReq_mshr_misses::total         1081                       # number of ReadReq MSHR misses
system.cpu.icache.ReadReq_mshr_miss_latency::.cpu.inst     86428500                       # number of ReadReq MSHR miss cycles
system.cpu.icache.ReadReq_mshr_miss_latency::total     86428500                       # number of ReadReq MSHR miss cycles
system.cpu.icache.ReadReq_mshr_miss_rate::.cpu.inst     0.000008                       # mshr miss rate for ReadReq accesses
system.cpu.icache.ReadReq_mshr_miss_rate::total     0.000008                       # mshr miss rate for ReadReq accesses
system.cpu.icache.ReadReq_avg_mshr_miss_latency::.cpu.inst 79952.358927                       # average ReadReq mshr miss latency
system.cpu.icache.ReadReq_avg_mshr_miss_latency::total 79952.358927                       # average ReadReq mshr miss latency
system.cpu.icache.power_state.pwrStateResidencyTicks::UNDEFINED 204120896500                       # Cumulative time (in ticks) in various power states
system.cpu.icache.tags.tagsinuse           669.200407                       # Cycle average of tags in use
system.cpu.icache.tags.total_refs           138483261                       # Total number of references to valid blocks.
system.cpu.icache.tags.sampled_refs              1081                       # Sample count of references to valid blocks.
system.cpu.icache.tags.avg_refs          128106.624422                       # Average number of references to valid blocks.
system.cpu.icache.tags.warmup_cycle             87500                       # Cycle when the warmup percentage was hit.
system.cpu.icache.tags.occ_blocks::.cpu.inst   669.200407                       # Average occupied blocks per requestor
system.cpu.icache.tags.occ_percent::.cpu.inst     0.653516                       # Average percentage of cache occupancy
system.cpu.icache.tags.occ_percent::total     0.653516                       # Average percentage of cache occupancy
system.cpu.icache.tags.occ_task_id_blocks::1024          834                       # Occupied blocks per task id
system.cpu.icache.tags.age_task_id_blocks_1024::3            4                       # Occupied blocks per task id
system.cpu.icache.tags.age_task_id_blocks_1024::4          830                       # Occupied blocks per task id
system.cpu.icache.tags.occ_task_id_percent::1024     0.814453                       # Percentage of cache occupancy per task id
system.cpu.icache.tags.tag_accesses         276967603                       # Number of tag accesses
system.cpu.icache.tags.data_accesses        276967603                       # Number of data accesses
system.cpu.icache.tags.power_state.pwrStateResidencyTicks::UNDEFINED 204120896500                       # Cumulative time (in ticks) in various power states
system.cpu.interrupts.clk_domain.clock           8000                       # Clock period in ticks
system.cpu.itb.rdAccesses                           0                       # TLB accesses on read requests
system.cpu.itb.wrAccesses                   138483261                       # TLB accesses on write requests
system.cpu.itb.rdMisses                             0                       # TLB misses on read requests
system.cpu.itb.wrMisses                            64                       # TLB misses on write requests
system.cpu.itb.walker.power_state.pwrStateResidencyTicks::UNDEFINED 204120896500                       # Cumulative time (in ticks) in various power states
system.cpu.itb_walker_cache.blocked_cycles::no_mshrs            0                       # number of cycles access was blocked
system.cpu.itb_walker_cache.blocked_cycles::no_targets            0                       # number of cycles access was blocked
system.cpu.itb_walker_cache.blocked::no_mshrs            0                       # number of cycles access was blocked
system.cpu.itb_walker_cache.blocked::no_targets            0                       # number of cycles access was blocked
system.cpu.itb_walker_cache.avg_blocked_cycles::no_mshrs          nan                       # average number of cycles each access was blocked
system.cpu.itb_walker_cache.avg_blocked_cycles::no_targets          nan                       # average number of cycles each access was blocked
system.cpu.itb_walker_cache.replacements            0                       # number of replacements
system.cpu.itb_walker_cache.power_state.pwrStateResidencyTicks::UNDEFINED 204120896500                       # Cumulative time (in ticks) in various power states
system.cpu.itb_walker_cache.tags.tagsinuse            0                       # Cycle average of tags in use
system.cpu.itb_walker_cache.tags.total_refs            0                       # Total number of references to valid blocks.
system.cpu.itb_walker_cache.tags.sampled_refs            0                       # Sample count of references to valid blocks.
system.cpu.itb_walker_cache.tags.avg_refs          nan                       # Average number of references to valid blocks.
system.cpu.itb_walker_cache.tags.warmup_cycle            0                       # Cycle when the warmup percentage was hit.
system.cpu.itb_walker_cache.tags.tag_accesses            0                       # Number of tag accesses
system.cpu.itb_walker_cache.tags.data_accesses            0                       # Number of data accesses
system.cpu.itb_walker_cache.tags.power_state.pwrStateResidencyTicks::UNDEFINED 204120896500                       # Cumulative time (in ticks) in various power states
system.cpu.power_state.pwrStateResidencyTicks::ON 204120896500                       # Cumulative time (in ticks) in various power states
system.cpu.thread_0.numInsts                        0                       # Number of Instructions committed
system.cpu.thread_0.numOps                          0                       # Number of Ops committed
system.cpu.thread_0.numMemRefs                      0                       # Number of Memory References
system.cpu_clk_domain.clock                       500                       # Clock period in ticks
system.cpu_voltage_domain.voltage                   1                       # Voltage in Volts
system.l2.demand_hits::.cpu.inst                    7                       # number of demand (read+write) hits
system.l2.demand_hits::.cpu.data               512179                       # number of demand (read+write) hits
system.l2.demand_hits::total                   512186                       # number of demand (read+write) hits
system.l2.overall_hits::.cpu.inst                   7                       # number of overall hits
system.l2.overall_hits::.cpu.data              512179                       # number of overall hits
system.l2.overall_hits::total                  512186                       # number of overall hits
system.l2.demand_misses::.cpu.inst               1074                       # number of demand (read+write) misses
system.l2.demand_misses::.cpu.data              42561                       # number of demand (read+write) misses
system.l2.demand_misses::total                  43635                       # number of demand (read+write) misses
system.l2.overall_misses::.cpu.inst              1074                       # number of overall misses
system.l2.overall_misses::.cpu.data             42561                       # number of overall misses
system.l2.overall_misses::total                 43635                       # number of overall misses
system.l2.demand_miss_latency::.cpu.inst     84731500                       # number of demand (read+write) miss cycles
system.l2.demand_miss_latency::.cpu.data   3510738500                       # number of demand (read+write) miss cycles
system.l2.demand_miss_latency::total       3595470000                       # number of demand (read+write) miss cycles
system.l2.overall_miss_latency::.cpu.inst     84731500                       # number of overall miss cycles
system.l2.overall_miss_latency::.cpu.data   3510738500                       # number of overall miss cycles
system.l2.overall_miss_latency::total      3595470000                       # number of overall miss cycles
system.l2.demand_accesses::.cpu.inst             1081                       # number of demand (read+write) accesses
system.l2.demand_accesses::.cpu.data           554740                       # number of demand (read+write) accesses
system.l2.demand_accesses::total               555821                       # number of demand (read+write) accesses
system.l2.overall_accesses::.cpu.inst            1081                       # number of overall (read+write) accesses
system.l2.overall_accesses::.cpu.data          554740                       # number of overall (read+write) accesses
system.l2.overall_accesses::total              555821                       # number of overall (read+write) accesses
system.l2.demand_miss_rate::.cpu.inst        0.993525                       # miss rate for demand accesses
system.l2.demand_miss_rate::.cpu.data        0.076722                       # miss rate for demand accesses
system.l2.demand_miss_rate::total            0.078505                       # miss rate for demand accesses
system.l2.overall_miss_rate::.cpu.inst       0.993525                       # miss rate for overall accesses
system.l2.overall_miss_rate::.cpu.data       0.076722                       # miss rate for overall accesses
system.l2.overall_miss_rate::total           0.078505                       # miss rate for overall accesses
system.l2.demand_avg_miss_latency::.cpu.inst 78893.389199                       # average overall miss latency
system.l2.demand_avg_miss_latency::.cpu.data 82487.218345                       # average overall miss latency
system.l2.demand_avg_miss_latency::total 82398.762461                       # average overall miss latency
system.l2.overall_avg_miss_latency::.cpu.inst 78893.389199                       # average overall miss latency
system.l2.overall_avg_miss_latency::.cpu.data 82487.218345                       # average overall miss latency
system.l2.overall_avg_miss_latency::total 82398.762461                       # average overall miss latency
system.l2.blocked_cycles::no_mshrs                  0                       # number of cycles access was blocked
system.l2.blocked_cycles::no_targets                0                       # number of cycles access was blocked
system.l2.blocked::no_mshrs                         0                       # number of cycles access was blocked
system.l2.blocked::no_targets                       0                       # number of cycles access was blocked
system.l2.avg_blocked_cycles::no_mshrs            nan                       # average number of cycles each access was blocked
system.l2.avg_blocked_cycles::no_targets          nan                       # average number of cycles each access was blocked
system.l2.writebacks::.writebacks                9241                       # number of writebacks
system.l2.writebacks::total                      9241                       # number of writebacks
system.l2.demand_mshr_misses::.cpu.inst          1074                       # number of demand (read+write) MSHR misses
system.l2.demand_mshr_misses::.cpu.data         42561                       # number of demand (read+write) MSHR misses
system.l2.demand_mshr_misses::total             43635                       # number of demand (read+write) MSHR misses
system.l2.overall_mshr_misses::.cpu.inst         1074                       # number of overall MSHR misses
system.l2.overall_mshr_misses::.cpu.data        42561                       # number of overall MSHR misses
system.l2.overall_mshr_misses::total            43635                       # number of overall MSHR misses
system.l2.demand_mshr_miss_latency::.cpu.inst     73991500                       # number of demand (read+write) MSHR miss cycles
system.l2.demand_mshr_miss_latency::.cpu.data   3085128500                       # number of demand (read+write) MSHR miss cycles
system.l2.demand_mshr_miss_latency::total   3159120000                       # number of demand (read+write) MSHR miss cycles
system.l2.overall_mshr_miss_latency::.cpu.inst     73991500                       # number of overall MSHR miss cycles
system.l2.overall_mshr_miss_latency::.cpu.data   3085128500                       # number of overall MSHR miss cycles
system.l2.overall_mshr_miss_latency::total   3159120000                       # number of overall MSHR miss cycles
system.l2.demand_mshr_miss_rate::.cpu.inst     0.993525                       # mshr miss rate for demand accesses
system.l2.demand_mshr_miss_rate::.cpu.data     0.076722                       # mshr miss rate for demand accesses
system.l2.demand_mshr_miss_rate::total       0.078505                       # mshr miss rate for demand accesses
system.l2.overall_mshr_miss_rate::.cpu.inst     0.993525                       # mshr miss rate for overall accesses
system.l2.overall_mshr_miss_rate::.cpu.data     0.076722                       # mshr miss rate for overall accesses
system.l2.overall_mshr_miss_rate::total      0.078505                       # mshr miss rate for overall accesses
system.l2.demand_avg_mshr_miss_latency::.cpu.inst 68893.389199                       # average overall mshr miss latency
system.l2.demand_avg_mshr_miss_latency::.cpu.data 72487.218345                       # average overall mshr miss latency
system.l2.demand_avg_mshr_miss_latency::total 72398.762461                       # average overall mshr miss latency
system.l2.overall_avg_mshr_miss_latency::.cpu.inst 68893.389199                       # average overall mshr miss latency
system.l2.overall_avg_mshr_miss_latency::.cpu.data 72487.218345                       # average overall mshr miss latency
system.l2.overall_avg_mshr_miss_latency::total 72398.762461                       # average overall mshr miss latency
system.l2.replacements                          29530                       # number of replacements
system.l2.WritebackDirty_hits::.writebacks       403382                       # number of WritebackDirty hits
system.l2.WritebackDirty_hits::total           403382                       # number of WritebackDirty hits
system.l2.WritebackDirty_accesses::.writebacks       403382                       # number of WritebackDirty accesses(hits+misses)
system.l2.WritebackDirty_accesses::total       403382                       # number of WritebackDirty accesses(hits+misses)
system.l2.WritebackClean_hits::.writebacks          247                       # number of WritebackClean hits
system.l2.WritebackClean_hits::total              247                       # number of WritebackClean hits
system.l2.WritebackClean_accesses::.writebacks          247                       # number of WritebackClean accesses(hits+misses)
system.l2.WritebackClean_accesses::total          247                       # number of WritebackClean accesses(hits+misses)
system.l2.CleanEvict_mshr_misses::.writebacks         5554                       # number of CleanEvict MSHR misses
system.l2.CleanEvict_mshr_misses::total          5554                       # number of CleanEvict MSHR misses
system.l2.CleanEvict_mshr_miss_rate::.writebacks          inf                       # mshr miss rate for CleanEvict accesses
system.l2.CleanEvict_mshr_miss_rate::total          inf                       # mshr miss rate for CleanEvict accesses
system.l2.ReadExReq_hits::.cpu.data            121302                       # number of ReadExReq hits
system.l2.ReadExReq_hits::total                121302                       # number of ReadExReq hits
system.l2.ReadExReq_misses::.cpu.data           21944                       # number of ReadExReq misses
system.l2.ReadExReq_misses::total               21944                       # number of ReadExReq misses
system.l2.ReadExReq_miss_latency::.cpu.data   1816914500                       # number of ReadExReq miss cycles
system.l2.ReadExReq_miss_latency::total    1816914500                       # number of ReadExReq miss cycles
system.l2.ReadExReq_accesses::.cpu.data        143246                       # number of ReadExReq accesses(hits+misses)
system.l2.ReadExReq_accesses::total            143246                       # number of ReadExReq accesses(hits+misses)
system.l2.ReadExReq_miss_rate::.cpu.data     0.153191                       # miss rate for ReadExReq accesses
system.l2.ReadExReq_miss_rate::total         0.153191                       # miss rate for ReadExReq accesses
system.l2.ReadExReq_avg_miss_latency::.cpu.data 82797.780715                       # average ReadExReq miss latency
system.l2.ReadExReq_avg_miss_latency::total 82797.780715                       # average ReadExReq miss latency
system.l2.ReadExReq_mshr_misses::.cpu.data        21944                       # number of ReadExReq MSHR misses
system.l2.ReadExReq_mshr_misses::total          21944                       # number of ReadExReq MSHR misses
system.l2.ReadExReq_mshr_miss_latency::.cpu.data   1597474500                       # number of ReadExReq MSHR miss cycles
system.l2.ReadExReq_mshr_miss_latency::total   1597474500                       # number of ReadExReq MSHR miss cycles
system.l2.ReadExReq_mshr_miss_rate::.cpu.data     0.153191                       # mshr miss rate for ReadExReq accesses
system.l2.ReadExReq_mshr_miss_rate::total     0.153191                       # mshr miss rate for ReadExReq accesses
system.l2.ReadExReq_avg_mshr_miss_latency::.cpu.data 72797.780715                       # average ReadExReq mshr miss latency
system.l2.ReadExReq_avg_mshr_miss_latency::total 72797.780715                       # average ReadExReq mshr miss latency
system.l2.ReadCleanReq_hits::.cpu.inst              7                       # number of ReadCleanReq hits
system.l2.ReadCleanReq_hits::total                  7                       # number of ReadCleanReq hits
system.l2.ReadCleanReq_misses::.cpu.inst         1074                       # number of ReadCleanReq misses
system.l2.ReadCleanReq_misses::total             1074                       # number of ReadCleanReq misses
system.l2.ReadCleanReq_miss_latency::.cpu.inst     84731500                       # number of ReadCleanReq miss cycles
system.l2.ReadCleanReq_miss_latency::total     84731500                       # number of ReadCleanReq miss cycles
system.l2.ReadCleanReq_accesses::.cpu.inst         1081                       # number of ReadCleanReq accesses(hits+misses)
system.l2.ReadCleanReq_accesses::total           1081                       # number of ReadCleanReq accesses(hits+misses)
system.l2.ReadCleanReq_miss_rate::.cpu.inst     0.993525                       # miss rate for ReadCleanReq accesses
system.l2.ReadCleanReq_miss_rate::total      0.993525                       # miss rate for ReadCleanReq accesses
system.l2.ReadCleanReq_avg_miss_latency::.cpu.inst 78893.389199                       # average ReadCleanReq miss latency
system.l2.ReadCleanReq_avg_miss_latency::total 78893.389199                       # average ReadCleanReq miss latency
system.l2.ReadCleanReq_mshr_misses::.cpu.inst         1074                       # number of ReadCleanReq MSHR misses
system.l2.ReadCleanReq_mshr_misses::total         1074                       # number of ReadCleanReq MSHR misses
system.l2.ReadCleanReq_mshr_miss_latency::.cpu.inst     73991500                       # number of ReadCleanReq MSHR miss cycles
system.l2.ReadCleanReq_mshr_miss_latency::total     73991500                       # number of ReadCleanReq MSHR miss cycles
system.l2.ReadCleanReq_mshr_miss_rate::.cpu.inst     0.993525                       # mshr miss rate for ReadCleanReq accesses
system.l2.ReadCleanReq_mshr_miss_rate::total     0.993525                       # mshr miss rate for ReadCleanReq accesses
system.l2.ReadCleanReq_avg_mshr_miss_latency::.cpu.inst 68893.389199                       # average ReadCleanReq mshr miss latency
system.l2.ReadCleanReq_avg_mshr_miss_latency::total 68893.389199                       # average ReadCleanReq mshr miss latency
system.l2.ReadSharedReq_hits::.cpu.data        390877                       # number of ReadSharedReq hits
system.l2.ReadSharedReq_hits::total            390877                       # number of ReadSharedReq hits
system.l2.ReadSharedReq_misses::.cpu.data        20617                       # number of ReadSharedReq misses
system.l2.ReadSharedReq_misses::total           20617                       # number of ReadSharedReq misses
system.l2.ReadSharedReq_miss_latency::.cpu.data   1693824000                       # number of ReadSharedReq miss cycles
system.l2.ReadSharedReq_miss_latency::total   1693824000                       # number of ReadSharedReq miss cycles
system.l2.ReadSharedReq_accesses::.cpu.data       411494                       # number of ReadSharedReq accesses(hits+misses)
system.l2.ReadSharedReq_accesses::total        411494                       # number of ReadSharedReq accesses(hits+misses)
system.l2.ReadSharedReq_miss_rate::.cpu.data     0.050103                       # miss rate for ReadSharedReq accesses
system.l2.ReadSharedReq_miss_rate::total     0.050103                       # miss rate for ReadSharedReq accesses
system.l2.ReadSharedReq_avg_miss_latency::.cpu.data 82156.666828                       # average ReadSharedReq miss latency
system.l2.ReadSharedReq_avg_miss_latency::total 82156.666828                       # average ReadSharedReq miss latency
system.l2.ReadSharedReq_mshr_misses::.cpu.data        20617                       # number of ReadSharedReq MSHR misses
system.l2.ReadSharedReq_mshr_misses::total        20617                       # number of ReadSharedReq MSHR misses
system.l2.ReadSharedReq_mshr_miss_latency::.cpu.data   1487654000                       # number of ReadSharedReq MSHR miss cycles
system.l2.ReadSharedReq_mshr_miss_latency::total   1487654000                       # number of ReadSharedReq MSHR miss cycles
system.l2.ReadSharedReq_mshr_miss_rate::.cpu.data     0.050103                       # mshr miss rate for ReadSharedReq accesses
system.l2.ReadSharedReq_mshr_miss_rate::total     0.050103                       # mshr miss rate for ReadSharedReq accesses
system.l2.ReadSharedReq_avg_mshr_miss_latency::.cpu.data 72156.666828                       # average ReadSharedReq mshr miss latency
system.l2.ReadSharedReq_avg_mshr_miss_latency::total 72156.666828                       # average ReadSharedReq mshr miss latency
system.l2.power_state.pwrStateResidencyTicks::UNDEFINED 204120896500                       # Cumulative time (in ticks) in various power states
system.l2.tags.tagsinuse                 14262.043110                       # Cycle average of tags in use
system.l2.tags.total_refs                     1104230                       # Total number of references to valid blocks.
system.l2.tags.sampled_refs                     45786                       # Sample count of references to valid blocks.
system.l2.tags.avg_refs                     24.117197                       # Average number of references to valid blocks.
system.l2.tags.warmup_cycle                     77000                       # Cycle when the warmup percentage was hit.
system.l2.tags.occ_blocks::.writebacks      62.143908                       # Average occupied blocks per requestor
system.l2.tags.occ_blocks::.cpu.inst       111.446903                       # Average occupied blocks per requestor
system.l2.tags.occ_blocks::.cpu.data     14088.452299                       # Average occupied blocks per requestor
system.l2.tags.occ_percent::.writebacks      0.003793                       # Average percentage of cache occupancy
system.l2.tags.occ_percent::.cpu.inst        0.006802                       # Average percentage of cache occupancy
system.l2.tags.occ_percent::.cpu.data        0.859891                       # Average percentage of cache occupancy
system.l2.tags.occ_percent::total            0.870486                       # Average percentage of cache occupancy
system.l2.tags.occ_task_id_blocks::1024         16256                       # Occupied blocks per task id
system.l2.tags.age_task_id_blocks_1024::2            2                       # Occupied blocks per task id
system.l2.tags.age_task_id_blocks_1024::3           53                       # Occupied blocks per task id
system.l2.tags.age_task_id_blocks_1024::4        16201                       # Occupied blocks per task id
system.l2.tags.occ_task_id_percent::1024     0.992188                       # Percentage of cache occupancy per task id
system.l2.tags.tag_accesses                   1155570                       # Number of tag accesses
system.l2.tags.data_accesses                  1155570                       # Number of data accesses
system.l2.tags.power_state.pwrStateResidencyTicks::UNDEFINED 204120896500                       # Cumulative time (in ticks) in various power states
system.mem_ctrls.avgPriority_.writebacks::samples      9216.00                       # Average QoS priority value for accepted requests
system.mem_ctrls.avgPriority_.cpu.inst::samples      1074.00                       # Average QoS priority value for accepted requests
system.mem_ctrls.avgPriority_.cpu.data::samples     42293.00                       # Average QoS priority value for accepted requests
system.mem_ctrls.priorityMinLatency      0.000000018750                       # per QoS priority minimum request to response latency (s)
system.mem_ctrls.priorityMaxLatency      0.016640590500                       # per QoS priority maximum request to response latency (s)
system.mem_ctrls.numReadWriteTurnArounds          516                       # Number of turnarounds from READ to WRITE
system.mem_ctrls.numWriteReadTurnArounds          516                       # Number of turnarounds from WRITE to READ
system.mem_ctrls.numStayReadState              148322                       # Number of times bus staying in READ state
system.mem_ctrls.numStayWriteState               8688                       # Number of times bus staying in WRITE state
system.mem_ctrls.readReqs                       43635                       # Number of read requests accepted
system.mem_ctrls.writeReqs                       9241                       # Number of write requests accepted
system.mem_ctrls.readBursts                     43635                       # Number of controller read bursts, including those serviced by the write queue
system.mem_ctrls.writeBursts                     9241                       # Number of controller write bursts, including those merged in the write queue
system.mem_ctrls.servicedByWrQ                    268                       # Number of controller read bursts serviced by the write queue
system.mem_ctrls.mergedWrBursts                    25                       # Number of controller write bursts merged with an existing one
system.mem_ctrls.neitherReadNorWriteReqs            0                       # Number of requests that are neither read nor write
system.mem_ctrls.avgRdQLen                       1.00                       # Average read queue length when enqueuing
system.mem_ctrls.avgWrQLen                      20.00                       # Average write queue length when enqueuing
system.mem_ctrls.numRdRetry                         0                       # Number of times read queue was full causing retry
system.mem_ctrls.numWrRetry                         0                       # Number of times write queue was full causing retry
system.mem_ctrls.readPktSize::0                     0                       # Read request sizes (log2)
system.mem_ctrls.readPktSize::1                     0                       # Read request sizes (log2)
system.mem_ctrls.readPktSize::2                     0                       # Read request sizes (log2)
system.mem_ctrls.readPktSize::3                     0                       # Read request sizes (log2)
system.mem_ctrls.readPktSize::4                     0                       # Read request sizes (log2)
system.mem_ctrls.readPktSize::5                     0                       # Read request sizes (log2)
system.mem_ctrls.readPktSize::6                 43635                       # Read request sizes (log2)
system.mem_ctrls.writePktSize::0                    0                       # Write request sizes (log2)
system.mem_ctrls.writePktSize::1                    0                       # Write request sizes (log2)
system.mem_ctrls.writePktSize::2                    0                       # Write request sizes (log2)
system.mem_ctrls.writePktSize::3                    0                       # Write request sizes (log2)
system.mem_ctrls.writePktSize::4                    0                       # Write request sizes (log2)
system.mem_ctrls.writePktSize::5                    0                       # Write request sizes (log2)
system.mem_ctrls.writePktSize::6                 9241                       # Write request sizes (log2)
system.mem_ctrls.rdQLenPdf::0                   43291                       # What read queue length does an incoming req see
system.mem_ctrls.rdQLenPdf::1                      43                       # What read queue length does an incoming req see
system.mem_ctrls.rdQLenPdf::2                      32                       # What read queue length does an incoming req see
system.mem_ctrls.rdQLenPdf::3                       1                       # What read queue length does an incoming req see
system.mem_ctrls.rdQLenPdf::4                       0                       # What read queue length does an incoming req see
system.mem_ctrls.rdQLenPdf::5                       0                       # What read queue length does an incoming req see
system.mem_ctrls.rdQLenPdf::6                       0                       # What read queue length does an incoming req see
system.mem_ctrls.rdQLenPdf::7                       0                       # What read queue length does an incoming req see
system.mem_ctrls.rdQLenPdf::8                       0                       # What read queue length does an incoming req see
system.mem_ctrls.rdQLenPdf::9                       0                       # What read queue length does an incoming req see
system.mem_ctrls.rdQLenPdf::10                      0                       # What read queue length does an incoming req see
system.mem_ctrls.rdQLenPdf::11                      0                       # What read queue length does an incoming req see
system.mem_ctrls.rdQLenPdf::12                      0                       # What read queue length does an incoming req see
system.mem_ctrls.rdQLenPdf::13                      0                       # What read queue length does an incoming req see
system.mem_ctrls.rdQLenPdf::14                      0                       # What read queue length does an incoming req see
system.mem_ctrls.rdQLenPdf::15                      0                       # What read queue length does an incoming req see
system.mem_ctrls.rdQLenPdf::16                      0                       # What read queue length does an incoming req see
system.mem_ctrls.rdQLenPdf::17                      0                       # What read queue length does an incoming req see
system.mem_ctrls.rdQLenPdf::18                      0                       # What read queue length does an incoming req see
system.mem_ctrls.rdQLenPdf::19                      0                       # What read queue length does an incoming req see
system.mem_ctrls.rdQLenPdf::20                      0                       # What read queue length does an incoming req see
system.mem_ctrls.rdQLenPdf::21                      0                       # What read queue length does an incoming req see
system.mem_ctrls.rdQLenPdf::22                      0                       # What read queue length does an incoming req see
system.mem_ctrls.rdQLenPdf::23                      0                       # What read queue length does an incoming req see
system.mem_ctrls.rdQLenPdf::24                      0                       # What read queue length does an incoming req see
system.mem_ctrls.rdQLenPdf::25                      0                       # What read queue length does an incoming req see
system.mem_ctrls.rdQLenPdf::26                      0                       # What read queue length does an incoming req see
system.mem_ctrls.rdQLenPdf::27                      0                       # What read queue length does an incoming req see
system.mem_ctrls.rdQLenPdf::28                      0                       # What read queue length does an incoming req see
system.mem_ctrls.rdQLenPdf::29                      0                       # What read queue length does an incoming req see
system.mem_ctrls.rdQLenPdf::30                      0                       # What read queue length does an incoming req see
system.mem_ctrls.rdQLenPdf::31                      0                       # What read queue length does an incoming req see
system.mem_ctrls.wrQLenPdf::0                       1                       # What write queue length does an incoming req see
system.mem_ctrls.wrQLenPdf::1                       1                       # What write queue length does an incoming req see
system.mem_ctrls.wrQLenPdf::2                       1                       # What write queue length does an incoming req see
system.mem_ctrls.wrQLenPdf::3                       1                       # What write queue length does an incoming req see
system.mem_ctrls.wrQLenPdf::4                       1                       # What write queue length does an incoming req see
system.mem_ctrls.wrQLenPdf::5                       1                       # What write queue length does an incoming req see
system.mem_ctrls.wrQLenPdf::6                       1                       # What write queue length does an incoming req see
system.mem_ctrls.wrQLenPdf::7                       1                       # What write queue length does an incoming req see
system.mem_ctrls.wrQLenPdf::8                       1                       # What write queue length does an incoming req see
system.mem_ctrls.wrQLenPdf::9                       1                       # What write queue length does an incoming req see
system.mem_ctrls.wrQLenPdf::10                      1                       # What write queue length does an incoming req see
system.mem_ctrls.wrQLenPdf::11                      1                       # What write queue length does an incoming req see
system.mem_ctrls.wrQLenPdf::12                      1                       # What write queue length does an incoming req see
system.mem_ctrls.wrQLenPdf::13                      1                       # What write queue length does an incoming req see
system.mem_ctrls.wrQLenPdf::14                      1                       # What write queue length does an incoming req see
system.mem_ctrls.wrQLenPdf::15                    469                       # What write queue length does an incoming req see
system.mem_ctrls.wrQLenPdf::16                    472                       # What write queue length does an incoming req see
system.mem_ctrls.wrQLenPdf::17                    511                       # What write queue length does an incoming req see
system.mem_ctrls.wrQLenPdf::18                    517                       # What write queue length does an incoming req see
system.mem_ctrls.wrQLenPdf::19                    516                       # What write queue length does an incoming req see
system.mem_ctrls.wrQLenPdf::20                    516                       # What write queue length does an incoming req see
system.mem_ctrls.wrQLenPdf::21                    516                       # What write queue length does an incoming req see
system.mem_ctrls.wrQLenPdf::22                    516                       # What write queue length does an incoming req see
system.mem_ctrls.wrQLenPdf::23                    516                       # What write queue length does an incoming req see
system.mem_ctrls.wrQLenPdf::24                    516                       # What write queue length does an incoming req see
system.mem_ctrls.wrQLenPdf::25                    520                       # What write queue length does an incoming req see
system.mem_ctrls.wrQLenPdf::26                    520                       # What write queue length does an incoming req see
system.mem_ctrls.wrQLenPdf::27                    516                       # What write queue length does an incoming req see
system.mem_ctrls.wrQLenPdf::28                    516                       # What write queue length does an incoming req see
system.mem_ctrls.wrQLenPdf::29                    516                       # What write queue length does an incoming req see
system.mem_ctrls.wrQLenPdf::30                    516                       # What write queue length does an incoming req see
system.mem_ctrls.wrQLenPdf::31                    516                       # What write queue length does an incoming req see
system.mem_ctrls.wrQLenPdf::32                    516                       # What write queue length does an incoming req see
system.mem_ctrls.wrQLenPdf::33                      0                       # What write queue length does an incoming req see
system.mem_ctrls.wrQLenPdf::34                      0                       # What write queue length does an incoming req see
system.mem_ctrls.wrQLenPdf::35                      0                       # What write queue length does an incoming req see
system.mem_ctrls.wrQLenPdf::36                      0                       # What write queue length does an incoming req see
system.mem_ctrls.wrQLenPdf::37                      0                       # What write queue length does an incoming req see
system.mem_ctrls.wrQLenPdf::38                      0                       # What write queue length does an incoming req see
system.mem_ctrls.wrQLenPdf::39                      0                       # What write queue length does an incoming req see
system.mem_ctrls.wrQLenPdf::40                      0                       # What write queue length does an incoming req see
system.mem_ctrls.wrQLenPdf::41                      0                       # What write queue length does an incoming req see
system.mem_ctrls.wrQLenPdf::42                      0                       # What write queue length does an incoming req see
system.mem_ctrls.wrQLenPdf::43                      0                       # What write queue length does an incoming req see
system.mem_ctrls.wrQLenPdf::44                      0                       # What write queue length does an incoming req see
system.mem_ctrls.wrQLenPdf::45                      0                       # What write queue length does an incoming req see
system.mem_ctrls.wrQLenPdf::46                      0                       # What write queue length does an incoming req see
system.mem_ctrls.wrQLenPdf::47                      0                       # What write queue length does an incoming req see
system.mem_ctrls.wrQLenPdf::48                      0                       # What write queue length does an incoming req see
system.mem_ctrls.wrQLenPdf::49                      0                       # What write queue length does an incoming req see
system.mem_ctrls.wrQLenPdf::50                      0                       # What write queue length does an incoming req see
system.mem_ctrls.wrQLenPdf::51                      0                       # What write queue length does an incoming req see
system.mem_ctrls.wrQLenPdf::52                      0                       # What write queue length does an incoming req see
system.mem_ctrls.wrQLenPdf::53                      0                       # What write queue length does an incoming req see
system.mem_ctrls.wrQLenPdf::54                      0                       # What write queue length does an incoming req see
system.mem_ctrls.wrQLenPdf::55                      0                       # What write queue length does an incoming req see
system.mem_ctrls.wrQLenPdf::56                      0                       # What write queue length does an incoming req see
system.mem_ctrls.wrQLenPdf::57                      0                       # What write queue length does an incoming req see
system.mem_ctrls.wrQLenPdf::58                      0                       # What write queue length does an incoming req see
system.mem_ctrls.wrQLenPdf::59                      0                       # What write queue length does an incoming req see
system.mem_ctrls.wrQLenPdf::60                      0                       # What write queue length does an incoming req see
system.mem_ctrls.wrQLenPdf::61                      0                       # What write queue length does an incoming req see
system.mem_ctrls.wrQLenPdf::62                      0                       # What write queue length does an incoming req see
system.mem_ctrls.wrQLenPdf::63                      0                       # What write queue length does an incoming req see
system.mem_ctrls.rdPerTurnAround::samples          516                       # Reads before turning the bus around for writes
system.mem_ctrls.rdPerTurnAround::mean      83.998062                       # Reads before turning the bus around for writes
system.mem_ctrls.rdPerTurnAround::gmean     40.905437                       # Reads before turning the bus around for writes
system.mem_ctrls.rdPerTurnAround::stdev    600.141169                       # Reads before turning the bus around for writes
system.mem_ctrls.rdPerTurnAround::0-511           510     98.84%     98.84% # Reads before turning the bus around for writes
system.mem_ctrls.rdPerTurnAround::512-1023            3      0.58%     99.42% # Reads before turning the bus around for writes
system.mem_ctrls.rdPerTurnAround::1024-1535            2      0.39%     99.81% # Reads before turning the bus around for writes
[...]
system.mem_ctrls.dram.bw_total::.cpu.data     13344562                       # Total bandwidth to/from this memory (bytes/s)
system.mem_ctrls.dram.bw_total::total        16578724                       # Total bandwidth to/from this memory (bytes/s)
system.mem_ctrls.dram.readBursts                43367                       # Number of DRAM read bursts
system.mem_ctrls.dram.writeBursts                9197                       # Number of DRAM write bursts
system.mem_ctrls.dram.perBankRdBursts::0         2590                       # Per bank write bursts
system.mem_ctrls.dram.perBankRdBursts::1         2683                       # Per bank write bursts
system.mem_ctrls.dram.perBankRdBursts::2         3122                       # Per bank write bursts
system.mem_ctrls.dram.perBankRdBursts::3         2698                       # Per bank write bursts
system.mem_ctrls.dram.perBankRdBursts::4         2978                       # Per bank write bursts
system.mem_ctrls.dram.perBankRdBursts::5         2778                       # Per bank write bursts
system.mem_ctrls.dram.perBankRdBursts::6         2807                       # Per bank write bursts
system.mem_ctrls.dram.perBankRdBursts::7         2911                       # Per bank write bursts
system.mem_ctrls.dram.perBankRdBursts::8         2865                       # Per bank write bursts
system.mem_ctrls.dram.perBankRdBursts::9         2914                       # Per bank write bursts
system.mem_ctrls.dram.perBankRdBursts::10         2819                       # Per bank write bursts
system.mem_ctrls.dram.perBankRdBursts::11         2849                       # Per bank write bursts
system.mem_ctrls.dram.perBankRdBursts::12         2643                       # Per bank write bursts
system.mem_ctrls.dram.perBankRdBursts::13         2208                       # Per bank write bursts
system.mem_ctrls.dram.perBankRdBursts::14         2737                       # Per bank write bursts
system.mem_ctrls.dram.perBankRdBursts::15         1765                       # Per bank write bursts
system.mem_ctrls.dram.perBankWrBursts::0          513                       # Per bank write bursts
system.mem_ctrls.dram.perBankWrBursts::1          539                       # Per bank write bursts
system.mem_ctrls.dram.perBankWrBursts::2          776                       # Per bank write bursts
system.mem_ctrls.dram.perBankWrBursts::3          581                       # Per bank write bursts
system.mem_ctrls.dram.perBankWrBursts::4          556                       # Per bank write bursts
system.mem_ctrls.dram.perBankWrBursts::5          510                       # Per bank write bursts
system.mem_ctrls.dram.perBankWrBursts::6          597                       # Per bank write bursts
system.mem_ctrls.dram.perBankWrBursts::7          617                       # Per bank write bursts
system.mem_ctrls.dram.perBankWrBursts::8          557                       # Per bank write bursts
system.mem_ctrls.dram.perBankWrBursts::9          526                       # Per bank write bursts
system.mem_ctrls.dram.perBankWrBursts::10          456                       # Per bank write bursts
system.mem_ctrls.dram.perBankWrBursts::11          542                       # Per bank write bursts
system.mem_ctrls.dram.perBankWrBursts::12          568                       # Per bank write bursts
system.mem_ctrls.dram.perBankWrBursts::13          639                       # Per bank write bursts
system.mem_ctrls.dram.perBankWrBursts::14          863                       # Per bank write bursts
system.mem_ctrls.dram.perBankWrBursts::15          357                       # Per bank write bursts
system.mem_ctrls.dram.totQLat               564104500                       # Total ticks spent queuing
system.mem_ctrls.dram.totBusLat             216835000                       # Total ticks spent in databus transfers
system.mem_ctrls.dram.totMemAccLat         1377235750                       # Total ticks spent from burst creation until serviced by the DRAM
system.mem_ctrls.dram.avgQLat                13007.69                       # Average queueing delay per DRAM burst
system.mem_ctrls.dram.avgBusLat               5000.00                       # Average bus latency per DRAM burst
system.mem_ctrls.dram.avgMemAccLat           31757.69                       # Average memory access latency per DRAM burst
system.mem_ctrls.dram.readRowHits               19862                       # Number of row buffer hits during reads
system.mem_ctrls.dram.writeRowHits               6804                       # Number of row buffer hits during writes
system.mem_ctrls.dram.readRowHitRate            45.80                       # Row buffer hit rate for reads
system.mem_ctrls.dram.writeRowHitRate           73.98                       # Row buffer hit rate for writes
system.mem_ctrls.dram.bytesPerActivate::samples        25898                       # Bytes accessed per row activation
system.mem_ctrls.dram.bytesPerActivate::mean   129.897907                       # Bytes accessed per row activation
system.mem_ctrls.dram.bytesPerActivate::gmean    93.853202                       # Bytes accessed per row activation
system.mem_ctrls.dram.bytesPerActivate::stdev   163.986016                       # Bytes accessed per row activation
system.mem_ctrls.dram.bytesPerActivate::0-127        17837     68.87%     68.87% # Bytes accessed per row activation
system.mem_ctrls.dram.bytesPerActivate::128-255         4759     18.38%     87.25% # Bytes accessed per row activation
system.mem_ctrls.dram.bytesPerActivate::256-383         1909      7.37%     94.62% # Bytes accessed per row activation
system.mem_ctrls.dram.bytesPerActivate::384-511          431      1.66%     96.29% # Bytes accessed per row activation
system.mem_ctrls.dram.bytesPerActivate::512-639          196      0.76%     97.04% # Bytes accessed per row activation
system.mem_ctrls.dram.bytesPerActivate::640-767          112      0.43%     97.47% # Bytes accessed per row activation
system.mem_ctrls.dram.bytesPerActivate::768-895          105      0.41%     97.88% # Bytes accessed per row activation
system.mem_ctrls.dram.bytesPerActivate::896-1023           90      0.35%     98.23% # Bytes accessed per row activation
system.mem_ctrls.dram.bytesPerActivate::1024-1151          459      1.77%    100.00% # Bytes accessed per row activation
system.mem_ctrls.dram.bytesPerActivate::total        25898                       # Bytes accessed per row activation
system.mem_ctrls.dram.bytesRead               2775488                       # Total number of bytes read from DRAM
system.mem_ctrls.dram.bytesWritten             588608                       # Total number of bytes written to DRAM
system.mem_ctrls.dram.avgRdBW               13.597275                       # Average DRAM read bandwidth in MiBytes/s
system.mem_ctrls.dram.avgWrBW                2.883624                       # Average DRAM write bandwidth in MiBytes/s
system.mem_ctrls.dram.peakBW                 12800.00                       # Theoretical peak bandwidth in MiByte/s
system.mem_ctrls.dram.busUtil                    0.13                       # Data bus utilization in percentage
system.mem_ctrls.dram.busUtilRead                0.11                       # Data bus utilization in percentage for reads
system.mem_ctrls.dram.busUtilWrite               0.02                       # Data bus utilization in percentage for writes
system.mem_ctrls.dram.pageHitRate               50.73                       # Row buffer hit rate, read and write combined
system.mem_ctrls.dram.power_state.pwrStateResidencyTicks::UNDEFINED 204120896500                       # Cumulative time (in ticks) in various power states
system.mem_ctrls.dram.rank0.actEnergy        96518520                       # Energy for activate commands per rank (pJ)
system.mem_ctrls.dram.rank0.preEnergy        51300810                       # Energy for precharge commands per rank (pJ)
system.mem_ctrls.dram.rank0.readEnergy      161128380                       # Energy for read commands per rank (pJ)
system.mem_ctrls.dram.rank0.writeEnergy      24476580                       # Energy for write commands per rank (pJ)
system.mem_ctrls.dram.rank0.refreshEnergy 16112787600.000002                       # Energy for refresh commands per rank (pJ)
system.mem_ctrls.dram.rank0.actBackEnergy  18311236320                       # Energy for active background per rank (pJ)
system.mem_ctrls.dram.rank0.preBackEnergy  62962436160                       # Energy for precharge background per rank (pJ)
system.mem_ctrls.dram.rank0.actPowerDownEnergy            0                       # Energy for active power-down per rank (pJ)
system.mem_ctrls.dram.rank0.prePowerDownEnergy            0                       # Energy for precharge power-down per rank (pJ)
system.mem_ctrls.dram.rank0.selfRefreshEnergy            0                       # Energy for self refresh per rank (pJ)
system.mem_ctrls.dram.rank0.totalEnergy   97719884370                       # Total energy per rank (pJ)
system.mem_ctrls.dram.rank0.averagePower   478.735328                       # Core power per rank (mW)
system.mem_ctrls.dram.rank0.totalIdleTime            0                       # Total Idle time Per DRAM Rank
system.mem_ctrls.dram.rank0.pwrStateTime::IDLE 163502577500                       # Time in different power states
system.mem_ctrls.dram.rank0.pwrStateTime::REF   6815900000                       # Time in different power states
system.mem_ctrls.dram.rank0.pwrStateTime::SREF            0                       # Time in different power states
system.mem_ctrls.dram.rank0.pwrStateTime::PRE_PDN            0                       # Time in different power states
system.mem_ctrls.dram.rank0.pwrStateTime::ACT  33802419000                       # Time in different power states
system.mem_ctrls.dram.rank0.pwrStateTime::ACT_PDN            0                       # Time in different power states
system.mem_ctrls.dram.rank1.actEnergy        88393200                       # Energy for activate commands per rank (pJ)
system.mem_ctrls.dram.rank1.preEnergy        46982100                       # Energy for precharge commands per rank (pJ)
system.mem_ctrls.dram.rank1.readEnergy      148512000                       # Energy for read commands per rank (pJ)
system.mem_ctrls.dram.rank1.writeEnergy      23531760                       # Energy for write commands per rank (pJ)
system.mem_ctrls.dram.rank1.refreshEnergy 16112787600.000002                       # Energy for refresh commands per rank (pJ)
system.mem_ctrls.dram.rank1.actBackEnergy  17523992790                       # Energy for active background per rank (pJ)
system.mem_ctrls.dram.rank1.preBackEnergy  63625378080                       # Energy for precharge background per rank (pJ)
system.mem_ctrls.dram.rank1.actPowerDownEnergy            0                       # Energy for active power-down per rank (pJ)
system.mem_ctrls.dram.rank1.prePowerDownEnergy            0                       # Energy for precharge power-down per rank (pJ)
system.mem_ctrls.dram.rank1.selfRefreshEnergy            0                       # Energy for self refresh per rank (pJ)
system.mem_ctrls.dram.rank1.totalEnergy   97569577530                       # Total energy per rank (pJ)
system.mem_ctrls.dram.rank1.averagePower   477.998966                       # Core power per rank (mW)
system.mem_ctrls.dram.rank1.totalIdleTime            0                       # Total Idle time Per DRAM Rank
system.mem_ctrls.dram.rank1.pwrStateTime::IDLE 165233866500                       # Time in different power states
system.mem_ctrls.dram.rank1.pwrStateTime::REF   6815900000                       # Time in different power states
system.mem_ctrls.dram.rank1.pwrStateTime::SREF            0                       # Time in different power states
system.mem_ctrls.dram.rank1.pwrStateTime::PRE_PDN            0                       # Time in different power states
system.mem_ctrls.dram.rank1.pwrStateTime::ACT  32071130000                       # Time in different power states
system.mem_ctrls.dram.rank1.pwrStateTime::ACT_PDN            0                       # Time in different power states
system.mem_ctrls.power_state.pwrStateResidencyTicks::UNDEFINED 204120896500                       # Cumulative time (in ticks) in various power states
system.membus.trans_dist::ReadResp              21691                       # Transaction distribution
system.membus.trans_dist::WritebackDirty         9241                       # Transaction distribution
system.membus.trans_dist::CleanEvict            17490                       # Transaction distribution
system.membus.trans_dist::ReadExReq             21944                       # Transaction distribution
system.membus.trans_dist::ReadExResp            21944                       # Transaction distribution
system.membus.trans_dist::ReadSharedReq         21691                       # Transaction distribution
system.membus.pkt_count_system.l2.mem_side_port::system.mem_ctrls.port       114001                       # Packet count per connected requestor and responder (bytes)
system.membus.pkt_count_system.l2.mem_side_port::total       114001                       # Packet count per connected requestor and responder (bytes)
system.membus.pkt_count::total                 114001                       # Packet count per connected requestor and responder (bytes)
system.membus.pkt_size_system.l2.mem_side_port::system.mem_ctrls.port      3384064                       # Cumulative packet size per connected requestor and responder (bytes)
system.membus.pkt_size_system.l2.mem_side_port::total      3384064                       # Cumulative packet size per connected requestor and responder (bytes)
system.membus.pkt_size::total                 3384064                       # Cumulative packet size per connected requestor and responder (bytes)
system.membus.snoops                                0                       # Total snoops (count)
system.membus.snoopTraffic                          0                       # Total snoop traffic (bytes)
system.membus.snoop_fanout::samples             43635                       # Request fanout histogram
system.membus.snoop_fanout::mean                    0                       # Request fanout histogram
system.membus.snoop_fanout::stdev                   0                       # Request fanout histogram
system.membus.snoop_fanout::underflows              0      0.00%      0.00% # Request fanout histogram
system.membus.snoop_fanout::0                   43635    100.00%    100.00% # Request fanout histogram
system.membus.snoop_fanout::1                       0      0.00%    100.00% # Request fanout histogram
system.membus.snoop_fanout::overflows               0      0.00%    100.00% # Request fanout histogram
system.membus.snoop_fanout::min_value               0                       # Request fanout histogram
system.membus.snoop_fanout::max_value               0                       # Request fanout histogram
system.membus.snoop_fanout::total               43635                       # Request fanout histogram
system.membus.power_state.pwrStateResidencyTicks::UNDEFINED 204120896500                       # Cumulative time (in ticks) in various power states
system.membus.reqLayer2.occupancy           107365500                       # Layer occupancy (ticks)
system.membus.reqLayer2.utilization               0.1                       # Layer utilization (%)
system.membus.respLayer1.occupancy          235451250                       # Layer occupancy (ticks)
system.membus.respLayer1.utilization              0.1                       # Layer utilization (%)
system.tol2bus.trans_dist::ReadResp            412575                       # Transaction distribution
system.tol2bus.trans_dist::WritebackDirty       412623                       # Transaction distribution
system.tol2bus.trans_dist::WritebackClean          247                       # Transaction distribution
system.tol2bus.trans_dist::CleanEvict          170623                       # Transaction distribution
system.tol2bus.trans_dist::ReadExReq           143246                       # Transaction distribution
system.tol2bus.trans_dist::ReadExResp          143246                       # Transaction distribution
system.tol2bus.trans_dist::ReadCleanReq          1081                       # Transaction distribution
system.tol2bus.trans_dist::ReadSharedReq       411494                       # Transaction distribution
system.tol2bus.pkt_count_system.cpu.icache.mem_side_port::system.l2.cpu_side_port         2409                       # Packet count per connected requestor and responder (bytes)
system.tol2bus.pkt_count_system.cpu.dcache.mem_side_port::system.l2.cpu_side_port      1663196                       # Packet count per connected requestor and responder (bytes)
system.tol2bus.pkt_count::total               1665605                       # Packet count per connected requestor and responder (bytes)
system.tol2bus.pkt_size_system.cpu.icache.mem_side_port::system.l2.cpu_side_port        84992                       # Cumulative packet size per connected requestor and responder (bytes)
system.tol2bus.pkt_size_system.cpu.dcache.mem_side_port::system.l2.cpu_side_port     61319808                       # Cumulative packet size per connected requestor and responder (bytes)
system.tol2bus.pkt_size::total               61404800                       # Cumulative packet size per connected requestor and responder (bytes)
system.tol2bus.snoops                           29530                       # Total snoops (count)
system.tol2bus.snoopTraffic                    591424                       # Total snoop traffic (bytes)
system.tol2bus.snoop_fanout::samples           585351                       # Request fanout histogram
system.tol2bus.snoop_fanout::mean            0.014270                       # Request fanout histogram
system.tol2bus.snoop_fanout::stdev           0.118602                       # Request fanout histogram
system.tol2bus.snoop_fanout::underflows             0      0.00%      0.00% # Request fanout histogram
system.tol2bus.snoop_fanout::0                 576998     98.57%     98.57% # Request fanout histogram
system.tol2bus.snoop_fanout::1                   8353      1.43%    100.00% # Request fanout histogram
system.tol2bus.snoop_fanout::2                      0      0.00%    100.00% # Request fanout histogram
system.tol2bus.snoop_fanout::3                      0      0.00%    100.00% # Request fanout histogram
system.tol2bus.snoop_fanout::4                      0      0.00%    100.00% # Request fanout histogram
system.tol2bus.snoop_fanout::overflows              0      0.00%    100.00% # Request fanout histogram
system.tol2bus.snoop_fanout::min_value              0                       # Request fanout histogram
system.tol2bus.snoop_fanout::max_value              1                       # Request fanout histogram
system.tol2bus.snoop_fanout::total             585351                       # Request fanout histogram
system.tol2bus.power_state.pwrStateResidencyTicks::UNDEFINED 204120896500                       # Cumulative time (in ticks) in various power states
system.tol2bus.reqLayer0.occupancy          958521000                       # Layer occupancy (ticks)
system.tol2bus.reqLayer0.utilization              0.5                       # Layer utilization (%)
system.tol2bus.respLayer0.occupancy           1621500                       # Layer occupancy (ticks)
system.tol2bus.respLayer0.utilization             0.0                       # Layer utilization (%)
system.tol2bus.respLayer1.occupancy         832110000                       # Layer occupancy (ticks)
system.tol2bus.respLayer1.utilization             0.4                       # Layer utilization (%)
system.voltage_domain.voltage                       1                       # Voltage in Volts

---------- End Simulation Statistics   ----------
